***** HSPICE -- F-2011.09 32-BIT (Sep  5 2011) linux ******
 Input File: calcdelay.sp
 lic: No 'setenv LM_LICENSE_FILE' in current environment'
 lic:
 lic: FLEXlm: v10.8
 lic: USER:   watkins              HOSTNAME: engr-e132-d10
 lic: HOSTID: 002564bd04da         PID:      30757
 lic: Using FLEXlm license file:
 lic: 28000@131.230.191.194
 lic: Checkout 1 hspice
 lic: License/Maintenance for hspice will expire on 30-dec-2013/2012.06
 lic: 1(in_use)/50(total) FLOATING license(s) on SERVER 131.230.191.194
 lic:
 init: begin read circuit files,  cpu clock=  6.00E-02
       option search   = /synopsys/HSPICE/hspice/parts/ad
       option search   = /synopsys/HSPICE/hspice/parts/ad
       option search   = /synopsys/HSPICE/hspice/parts/behave
       option search   = /synopsys/HSPICE/hspice/parts/bjt
       option search   = /synopsys/HSPICE/hspice/parts/burr_brn
       option search   = /synopsys/HSPICE/hspice/parts/comlinear
       option search   = /synopsys/HSPICE/hspice/parts/dio
       option search   = /synopsys/HSPICE/hspice/parts/fet
       option search   = /synopsys/HSPICE/hspice/parts/lin_tech
       option search   = /synopsys/HSPICE/hspice/parts/pci
       option search   = /synopsys/HSPICE/hspice/parts/signet
       option search   = /synopsys/HSPICE/hspice/parts/ti
       option search   = /synopsys/HSPICE/hspice/parts/tline
       option search   = /synopsys/HSPICE/hspice/parts/xilinx
       option runlvl
       option measfi   =     1.00
       option measfo   =     3.00
       option measdg   =     8.00
       option ingold   =     0.00
       option post
 init: end read circuit files,  cpu clock=  6.00E-02 memory=    149 kb
 init: begin check errors,  cpu clock=  6.00E-02
 init: end check errors,  cpu clock=  6.00E-02 memory=    149 kb
 init: begin setup matrix, pivot=     0 cpu clock=  6.00E-02
       establish matrix -- done,  cpu clock=  6.00E-02 memory=    153 kb
       re-order matrix -- done,  cpu clock=  6.00E-02 memory=    153 kb
 init: end setup matrix,  cpu clock=  6.00E-02 memory=    173 kb
 dcop: begin dcop,  cpu clock=  6.00E-02
 dcop: end dcop,  cpu clock=  8.00E-02 memory=    173 kb  tot_iter=       4
 output: calcdelay.mt0
 sweep: tran tran0    begin, stop_t=  1.00E-09 #sweeps=2001 cpu clock=  8.00E-02
 tran: time= 1.4821E-10 tot_iter=      12 conv_iter=       6 cpu clock= 8.00E-02
 tran: time= 2.4821E-10 tot_iter=      16 conv_iter=       8 cpu clock= 8.00E-02
 tran: time= 3.4821E-10 tot_iter=      20 conv_iter=      10 cpu clock= 8.00E-02
 tran: time= 4.1800E-10 tot_iter=      24 conv_iter=      12 cpu clock= 8.00E-02
 tran: time= 5.0000E-10 tot_iter=      92 conv_iter=      33 cpu clock= 8.00E-02
 tran: time= 6.4530E-10 tot_iter=     120 conv_iter=      47 cpu clock= 8.00E-02
 tran: time= 7.4530E-10 tot_iter=     124 conv_iter=      49 cpu clock= 8.00E-02
 tran: time= 8.4530E-10 tot_iter=     128 conv_iter=      51 cpu clock= 8.00E-02
 tran: time= 9.4530E-10 tot_iter=     132 conv_iter=      53 cpu clock= 8.00E-02
 tran: time= 1.0000E-09 tot_iter=     134 conv_iter=      54 cpu clock= 8.00E-02
 sweep: tran tran0    end,  cpu clock=  8.00E-02 memory=    173 kb
>info:         ***** hspice job concluded
 init: begin read circuit files,  cpu clock=  4.48E-01
       option search   = /synopsys/HSPICE/hspice/parts/ad
       option search   = /synopsys/HSPICE/hspice/parts/ad
       option search   = /synopsys/HSPICE/hspice/parts/behave
       option search   = /synopsys/HSPICE/hspice/parts/bjt
       option search   = /synopsys/HSPICE/hspice/parts/burr_brn
       option search   = /synopsys/HSPICE/hspice/parts/comlinear
       option search   = /synopsys/HSPICE/hspice/parts/dio
       option search   = /synopsys/HSPICE/hspice/parts/fet
       option search   = /synopsys/HSPICE/hspice/parts/lin_tech
       option search   = /synopsys/HSPICE/hspice/parts/pci
       option search   = /synopsys/HSPICE/hspice/parts/signet
       option search   = /synopsys/HSPICE/hspice/parts/ti
       option search   = /synopsys/HSPICE/hspice/parts/tline
       option search   = /synopsys/HSPICE/hspice/parts/xilinx
       option runlvl
       option measfi   =     1.00
       option measfo   =     3.00
       option measdg   =     8.00
       option ingold   =     0.00
       option post
 init: end read circuit files,  cpu clock=  4.49E-01 memory=    150 kb
 init: begin check errors,  cpu clock=  4.49E-01
 init: end check errors,  cpu clock=  4.54E-01 memory=    150 kb
 init: begin setup matrix, pivot=     0 cpu clock=  4.54E-01
       establish matrix -- done,  cpu clock=  4.54E-01 memory=    154 kb
       re-order matrix -- done,  cpu clock=  4.54E-01 memory=    154 kb
 init: end setup matrix,  cpu clock=  4.72E-01 memory=    174 kb
 dcop: begin dcop,  cpu clock=  4.72E-01
 dcop: end dcop,  cpu clock=  4.84E-01 memory=    174 kb  tot_iter=       4
 output: calcdelay.tr1
 sweep: tran tran0    begin, stop_t=  1.00E-09 #sweeps=2001 cpu clock=  4.94E-01
 tran: time= 1.4821E-10 tot_iter=      12 conv_iter=       6 cpu clock= 4.95E-01
 tran: time= 2.4821E-10 tot_iter=      16 conv_iter=       8 cpu clock= 4.95E-01
 tran: time= 3.4821E-10 tot_iter=      20 conv_iter=      10 cpu clock= 4.95E-01
 tran: time= 4.0250E-10 tot_iter=      24 conv_iter=      12 cpu clock= 4.95E-01
 tran: time= 5.0000E-10 tot_iter=     107 conv_iter=      40 cpu clock= 5.00E-01
 tran: time= 6.3189E-10 tot_iter=     131 conv_iter=      52 cpu clock= 5.00E-01
 tran: time= 7.3189E-10 tot_iter=     135 conv_iter=      54 cpu clock= 5.00E-01
 tran: time= 8.3189E-10 tot_iter=     139 conv_iter=      56 cpu clock= 5.01E-01
 tran: time= 9.3189E-10 tot_iter=     143 conv_iter=      58 cpu clock= 5.01E-01
 tran: time= 1.0000E-09 tot_iter=     147 conv_iter=      60 cpu clock= 5.01E-01
 sweep: tran tran0    end,  cpu clock=  5.01E-01 memory=    174 kb
>info:         ***** hspice job concluded
 init: begin read circuit files,  cpu clock=  5.18E-01
       option search   = /synopsys/HSPICE/hspice/parts/ad
       option search   = /synopsys/HSPICE/hspice/parts/ad
       option search   = /synopsys/HSPICE/hspice/parts/behave
       option search   = /synopsys/HSPICE/hspice/parts/bjt
       option search   = /synopsys/HSPICE/hspice/parts/burr_brn
       option search   = /synopsys/HSPICE/hspice/parts/comlinear
       option search   = /synopsys/HSPICE/hspice/parts/dio
       option search   = /synopsys/HSPICE/hspice/parts/fet
       option search   = /synopsys/HSPICE/hspice/parts/lin_tech
       option search   = /synopsys/HSPICE/hspice/parts/pci
       option search   = /synopsys/HSPICE/hspice/parts/signet
       option search   = /synopsys/HSPICE/hspice/parts/ti
       option search   = /synopsys/HSPICE/hspice/parts/tline
       option search   = /synopsys/HSPICE/hspice/parts/xilinx
       option runlvl
       option measfi   =     1.00
       option measfo   =     3.00
       option measdg   =     8.00
       option ingold   =     0.00
       option post
 init: end read circuit files,  cpu clock=  5.20E-01 memory=    150 kb
 init: begin check errors,  cpu clock=  5.20E-01
 init: end check errors,  cpu clock=  5.24E-01 memory=    150 kb
 init: begin setup matrix, pivot=     0 cpu clock=  5.24E-01
       establish matrix -- done,  cpu clock=  5.25E-01 memory=    154 kb
       re-order matrix -- done,  cpu clock=  5.25E-01 memory=    154 kb
 init: end setup matrix,  cpu clock=  5.43E-01 memory=    174 kb
 dcop: begin dcop,  cpu clock=  5.43E-01
 dcop: end dcop,  cpu clock=  5.59E-01 memory=    174 kb  tot_iter=       4
 output: calcdelay.tr2
 sweep: tran tran0    begin, stop_t=  1.00E-09 #sweeps=2001 cpu clock=  5.72E-01
 tran: time= 1.4821E-10 tot_iter=      12 conv_iter=       6 cpu clock= 5.73E-01
 tran: time= 2.4821E-10 tot_iter=      16 conv_iter=       8 cpu clock= 5.73E-01
 tran: time= 3.4821E-10 tot_iter=      20 conv_iter=      10 cpu clock= 5.73E-01
 tran: time= 4.0500E-10 tot_iter=      24 conv_iter=      12 cpu clock= 5.73E-01
 tran: time= 5.0000E-10 tot_iter=     113 conv_iter=      35 cpu clock= 5.78E-01
 tran: time= 6.2839E-10 tot_iter=     142 conv_iter=      49 cpu clock= 5.79E-01
 tran: time= 7.2839E-10 tot_iter=     146 conv_iter=      51 cpu clock= 5.79E-01
 tran: time= 8.2839E-10 tot_iter=     150 conv_iter=      53 cpu clock= 5.79E-01
 tran: time= 9.2839E-10 tot_iter=     154 conv_iter=      55 cpu clock= 5.79E-01
 tran: time= 1.0000E-09 tot_iter=     158 conv_iter=      57 cpu clock= 5.80E-01
 sweep: tran tran0    end,  cpu clock=  5.80E-01 memory=    174 kb
>info:         ***** hspice job concluded
 init: begin read circuit files,  cpu clock=  5.98E-01
       option search   = /synopsys/HSPICE/hspice/parts/ad
       option search   = /synopsys/HSPICE/hspice/parts/ad
       option search   = /synopsys/HSPICE/hspice/parts/behave
       option search   = /synopsys/HSPICE/hspice/parts/bjt
       option search   = /synopsys/HSPICE/hspice/parts/burr_brn
       option search   = /synopsys/HSPICE/hspice/parts/comlinear
       option search   = /synopsys/HSPICE/hspice/parts/dio
       option search   = /synopsys/HSPICE/hspice/parts/fet
       option search   = /synopsys/HSPICE/hspice/parts/lin_tech
       option search   = /synopsys/HSPICE/hspice/parts/pci
       option search   = /synopsys/HSPICE/hspice/parts/signet
       option search   = /synopsys/HSPICE/hspice/parts/ti
       option search   = /synopsys/HSPICE/hspice/parts/tline
       option search   = /synopsys/HSPICE/hspice/parts/xilinx
       option runlvl
       option measfi   =     1.00
       option measfo   =     3.00
       option measdg   =     8.00
       option ingold   =     0.00
       option post
 init: end read circuit files,  cpu clock=  6.00E-01 memory=    150 kb
 init: begin check errors,  cpu clock=  6.00E-01
 init: end check errors,  cpu clock=  6.04E-01 memory=    150 kb
 init: begin setup matrix, pivot=     0 cpu clock=  6.04E-01
       establish matrix -- done,  cpu clock=  6.04E-01 memory=    154 kb
       re-order matrix -- done,  cpu clock=  6.04E-01 memory=    154 kb
 init: end setup matrix,  cpu clock=  1.04E+00 memory=    174 kb
 dcop: begin dcop,  cpu clock=  1.04E+00
 dcop: end dcop,  cpu clock=  1.04E+00 memory=    174 kb  tot_iter=       4
 output: calcdelay.tr3
 sweep: tran tran0    begin, stop_t=  1.00E-09 #sweeps=2001 cpu clock=  1.04E+00
 tran: time= 1.4821E-10 tot_iter=      12 conv_iter=       6 cpu clock= 1.04E+00
 tran: time= 2.4821E-10 tot_iter=      16 conv_iter=       8 cpu clock= 1.04E+00
 tran: time= 3.4821E-10 tot_iter=      20 conv_iter=      10 cpu clock= 1.04E+00
 tran: time= 4.0750E-10 tot_iter=      24 conv_iter=      12 cpu clock= 1.04E+00
 tran: time= 5.0000E-10 tot_iter=      91 conv_iter=      35 cpu clock= 1.05E+00
 tran: time= 6.0938E-10 tot_iter=     118 conv_iter=      48 cpu clock= 1.05E+00
 tran: time= 7.0938E-10 tot_iter=     122 conv_iter=      50 cpu clock= 1.05E+00
 tran: time= 8.0938E-10 tot_iter=     126 conv_iter=      52 cpu clock= 1.05E+00
 tran: time= 9.0938E-10 tot_iter=     130 conv_iter=      54 cpu clock= 1.05E+00
 tran: time= 1.0000E-09 tot_iter=     134 conv_iter=      56 cpu clock= 1.05E+00
 sweep: tran tran0    end,  cpu clock=  1.05E+00 memory=    174 kb
>info:         ***** hspice job concluded
 init: begin read circuit files,  cpu clock=  1.06E+00
       option search   = /synopsys/HSPICE/hspice/parts/ad
       option search   = /synopsys/HSPICE/hspice/parts/ad
       option search   = /synopsys/HSPICE/hspice/parts/behave
       option search   = /synopsys/HSPICE/hspice/parts/bjt
       option search   = /synopsys/HSPICE/hspice/parts/burr_brn
       option search   = /synopsys/HSPICE/hspice/parts/comlinear
       option search   = /synopsys/HSPICE/hspice/parts/dio
       option search   = /synopsys/HSPICE/hspice/parts/fet
       option search   = /synopsys/HSPICE/hspice/parts/lin_tech
       option search   = /synopsys/HSPICE/hspice/parts/pci
       option search   = /synopsys/HSPICE/hspice/parts/signet
       option search   = /synopsys/HSPICE/hspice/parts/ti
       option search   = /synopsys/HSPICE/hspice/parts/tline
       option search   = /synopsys/HSPICE/hspice/parts/xilinx
       option runlvl
       option measfi   =     1.00
       option measfo   =     3.00
       option measdg   =     8.00
       option ingold   =     0.00
       option post
 init: end read circuit files,  cpu clock=  1.06E+00 memory=    150 kb
 init: begin check errors,  cpu clock=  1.06E+00
 init: end check errors,  cpu clock=  1.07E+00 memory=    150 kb
 init: begin setup matrix, pivot=     0 cpu clock=  1.07E+00
       establish matrix -- done,  cpu clock=  1.07E+00 memory=    154 kb
       re-order matrix -- done,  cpu clock=  1.07E+00 memory=    154 kb
 init: end setup matrix,  cpu clock=  1.07E+00 memory=    174 kb
 dcop: begin dcop,  cpu clock=  1.07E+00
 dcop: end dcop,  cpu clock=  1.08E+00 memory=    174 kb  tot_iter=       4
 output: calcdelay.tr4
 sweep: tran tran0    begin, stop_t=  1.00E-09 #sweeps=2001 cpu clock=  1.08E+00
 tran: time= 1.4821E-10 tot_iter=      12 conv_iter=       6 cpu clock= 1.08E+00
 tran: time= 2.4821E-10 tot_iter=      16 conv_iter=       8 cpu clock= 1.08E+00
 tran: time= 3.4821E-10 tot_iter=      20 conv_iter=      10 cpu clock= 1.08E+00
 tran: time= 4.1000E-10 tot_iter=      24 conv_iter=      12 cpu clock= 1.08E+00
 tran: time= 5.0000E-10 tot_iter=      90 conv_iter=      33 cpu clock= 1.08E+00
 tran: time= 6.0091E-10 tot_iter=     117 conv_iter=      46 cpu clock= 1.08E+00
 tran: time= 7.0091E-10 tot_iter=     121 conv_iter=      48 cpu clock= 1.08E+00
 tran: time= 8.0091E-10 tot_iter=     125 conv_iter=      50 cpu clock= 1.08E+00
 tran: time= 9.0091E-10 tot_iter=     129 conv_iter=      52 cpu clock= 1.08E+00
 tran: time= 1.0000E-09 tot_iter=     133 conv_iter=      54 cpu clock= 1.08E+00
 sweep: tran tran0    end,  cpu clock=  1.08E+00 memory=    174 kb
>info:         ***** hspice job concluded
 init: begin read circuit files,  cpu clock=  1.10E+00
       option search   = /synopsys/HSPICE/hspice/parts/ad
       option search   = /synopsys/HSPICE/hspice/parts/ad
       option search   = /synopsys/HSPICE/hspice/parts/behave
       option search   = /synopsys/HSPICE/hspice/parts/bjt
       option search   = /synopsys/HSPICE/hspice/parts/burr_brn
       option search   = /synopsys/HSPICE/hspice/parts/comlinear
       option search   = /synopsys/HSPICE/hspice/parts/dio
       option search   = /synopsys/HSPICE/hspice/parts/fet
       option search   = /synopsys/HSPICE/hspice/parts/lin_tech
       option search   = /synopsys/HSPICE/hspice/parts/pci
       option search   = /synopsys/HSPICE/hspice/parts/signet
       option search   = /synopsys/HSPICE/hspice/parts/ti
       option search   = /synopsys/HSPICE/hspice/parts/tline
       option search   = /synopsys/HSPICE/hspice/parts/xilinx
       option runlvl
       option measfi   =     1.00
       option measfo   =     3.00
       option measdg   =     8.00
       option ingold   =     0.00
       option post
 init: end read circuit files,  cpu clock=  1.10E+00 memory=    152 kb
 init: begin check errors,  cpu clock=  1.10E+00
 init: end check errors,  cpu clock=  1.10E+00 memory=    152 kb
 init: begin setup matrix, pivot=     0 cpu clock=  1.10E+00
       establish matrix -- done,  cpu clock=  1.10E+00 memory=    157 kb
       re-order matrix -- done,  cpu clock=  1.10E+00 memory=    157 kb
 init: end setup matrix,  cpu clock=  1.11E+00 memory=    176 kb
 dcop: begin dcop,  cpu clock=  1.11E+00
 dcop: end dcop,  cpu clock=  1.11E+00 memory=    176 kb  tot_iter=       4
 output: calcdelay.tr5
 sweep: tran tran0    begin, stop_t=  1.00E-09 #sweeps=2001 cpu clock=  1.11E+00
 tran: time= 1.4821E-10 tot_iter=      12 conv_iter=       6 cpu clock= 1.11E+00
 tran: time= 2.4821E-10 tot_iter=      16 conv_iter=       8 cpu clock= 1.11E+00
 tran: time= 3.4821E-10 tot_iter=      20 conv_iter=      10 cpu clock= 1.11E+00
 tran: time= 4.1250E-10 tot_iter=      24 conv_iter=      12 cpu clock= 1.11E+00
 tran: time= 5.0000E-10 tot_iter=      87 conv_iter=      32 cpu clock= 1.12E+00
 tran: time= 6.1597E-10 tot_iter=     114 conv_iter=      45 cpu clock= 1.12E+00
 tran: time= 7.1597E-10 tot_iter=     118 conv_iter=      47 cpu clock= 1.12E+00
 tran: time= 8.1597E-10 tot_iter=     122 conv_iter=      49 cpu clock= 1.12E+00
 tran: time= 9.1597E-10 tot_iter=     126 conv_iter=      51 cpu clock= 1.12E+00
 tran: time= 1.0000E-09 tot_iter=     130 conv_iter=      53 cpu clock= 1.12E+00
 sweep: tran tran0    end,  cpu clock=  1.12E+00 memory=    176 kb
>info:         ***** hspice job concluded
 init: begin read circuit files,  cpu clock=  1.13E+00
       option search   = /synopsys/HSPICE/hspice/parts/ad
       option search   = /synopsys/HSPICE/hspice/parts/ad
       option search   = /synopsys/HSPICE/hspice/parts/behave
       option search   = /synopsys/HSPICE/hspice/parts/bjt
       option search   = /synopsys/HSPICE/hspice/parts/burr_brn
       option search   = /synopsys/HSPICE/hspice/parts/comlinear
       option search   = /synopsys/HSPICE/hspice/parts/dio
       option search   = /synopsys/HSPICE/hspice/parts/fet
       option search   = /synopsys/HSPICE/hspice/parts/lin_tech
       option search   = /synopsys/HSPICE/hspice/parts/pci
       option search   = /synopsys/HSPICE/hspice/parts/signet
       option search   = /synopsys/HSPICE/hspice/parts/ti
       option search   = /synopsys/HSPICE/hspice/parts/tline
       option search   = /synopsys/HSPICE/hspice/parts/xilinx
       option runlvl
       option measfi   =     1.00
       option measfo   =     3.00
       option measdg   =     8.00
       option ingold   =     0.00
       option post
 init: end read circuit files,  cpu clock=  1.13E+00 memory=    152 kb
 init: begin check errors,  cpu clock=  1.13E+00
 init: end check errors,  cpu clock=  1.14E+00 memory=    152 kb
 init: begin setup matrix, pivot=     0 cpu clock=  1.14E+00
       establish matrix -- done,  cpu clock=  1.14E+00 memory=    157 kb
       re-order matrix -- done,  cpu clock=  1.14E+00 memory=    157 kb
 init: end setup matrix,  cpu clock=  1.14E+00 memory=    176 kb
 dcop: begin dcop,  cpu clock=  1.14E+00
 dcop: end dcop,  cpu clock=  1.15E+00 memory=    176 kb  tot_iter=       4
 output: calcdelay.tr6
 sweep: tran tran0    begin, stop_t=  1.00E-09 #sweeps=2001 cpu clock=  1.15E+00
 tran: time= 1.4821E-10 tot_iter=      12 conv_iter=       6 cpu clock= 1.15E+00
 tran: time= 2.4821E-10 tot_iter=      16 conv_iter=       8 cpu clock= 1.15E+00
 tran: time= 3.4821E-10 tot_iter=      20 conv_iter=      10 cpu clock= 1.15E+00
 tran: time= 4.1500E-10 tot_iter=      24 conv_iter=      12 cpu clock= 1.15E+00
 tran: time= 5.0000E-10 tot_iter=      94 conv_iter=      34 cpu clock= 1.15E+00
 tran: time= 6.4243E-10 tot_iter=     122 conv_iter=      48 cpu clock= 1.15E+00
 tran: time= 7.4243E-10 tot_iter=     126 conv_iter=      50 cpu clock= 1.15E+00
 tran: time= 8.4243E-10 tot_iter=     130 conv_iter=      52 cpu clock= 1.15E+00
 tran: time= 9.4243E-10 tot_iter=     134 conv_iter=      54 cpu clock= 1.15E+00
 tran: time= 1.0000E-09 tot_iter=     138 conv_iter=      56 cpu clock= 1.15E+00
 sweep: tran tran0    end,  cpu clock=  1.15E+00 memory=    176 kb
>info:         ***** hspice job concluded
 init: begin read circuit files,  cpu clock=  1.17E+00
       option search   = /synopsys/HSPICE/hspice/parts/ad
       option search   = /synopsys/HSPICE/hspice/parts/ad
       option search   = /synopsys/HSPICE/hspice/parts/behave
       option search   = /synopsys/HSPICE/hspice/parts/bjt
       option search   = /synopsys/HSPICE/hspice/parts/burr_brn
       option search   = /synopsys/HSPICE/hspice/parts/comlinear
       option search   = /synopsys/HSPICE/hspice/parts/dio
       option search   = /synopsys/HSPICE/hspice/parts/fet
       option search   = /synopsys/HSPICE/hspice/parts/lin_tech
       option search   = /synopsys/HSPICE/hspice/parts/pci
       option search   = /synopsys/HSPICE/hspice/parts/signet
       option search   = /synopsys/HSPICE/hspice/parts/ti
       option search   = /synopsys/HSPICE/hspice/parts/tline
       option search   = /synopsys/HSPICE/hspice/parts/xilinx
       option runlvl
       option measfi   =     1.00
       option measfo   =     3.00
       option measdg   =     8.00
       option ingold   =     0.00
       option post
 init: end read circuit files,  cpu clock=  1.17E+00 memory=    152 kb
 init: begin check errors,  cpu clock=  1.17E+00
 init: end check errors,  cpu clock=  1.17E+00 memory=    152 kb
 init: begin setup matrix, pivot=     0 cpu clock=  1.17E+00
       establish matrix -- done,  cpu clock=  1.17E+00 memory=    157 kb
       re-order matrix -- done,  cpu clock=  1.17E+00 memory=    157 kb
 init: end setup matrix,  cpu clock=  1.18E+00 memory=    176 kb
 dcop: begin dcop,  cpu clock=  1.18E+00
 dcop: end dcop,  cpu clock=  1.18E+00 memory=    176 kb  tot_iter=       4
 output: calcdelay.tr7
 sweep: tran tran0    begin, stop_t=  1.00E-09 #sweeps=2001 cpu clock=  1.19E+00
 tran: time= 1.4821E-10 tot_iter=      12 conv_iter=       6 cpu clock= 1.19E+00
 tran: time= 2.4821E-10 tot_iter=      16 conv_iter=       8 cpu clock= 1.19E+00
 tran: time= 3.4821E-10 tot_iter=      20 conv_iter=      10 cpu clock= 1.19E+00
 tran: time= 4.1750E-10 tot_iter=      24 conv_iter=      12 cpu clock= 1.19E+00
 tran: time= 5.0000E-10 tot_iter=      93 conv_iter=      33 cpu clock= 1.19E+00
 tran: time= 6.0136E-10 tot_iter=     119 conv_iter=      46 cpu clock= 1.19E+00
 tran: time= 7.0136E-10 tot_iter=     123 conv_iter=      48 cpu clock= 1.19E+00
 tran: time= 8.0136E-10 tot_iter=     127 conv_iter=      50 cpu clock= 1.19E+00
 tran: time= 9.0136E-10 tot_iter=     131 conv_iter=      52 cpu clock= 1.19E+00
 tran: time= 1.0000E-09 tot_iter=     135 conv_iter=      54 cpu clock= 1.19E+00
 sweep: tran tran0    end,  cpu clock=  1.19E+00 memory=    176 kb
>info:         ***** hspice job concluded
 init: begin read circuit files,  cpu clock=  1.20E+00
       option search   = /synopsys/HSPICE/hspice/parts/ad
       option search   = /synopsys/HSPICE/hspice/parts/ad
       option search   = /synopsys/HSPICE/hspice/parts/behave
       option search   = /synopsys/HSPICE/hspice/parts/bjt
       option search   = /synopsys/HSPICE/hspice/parts/burr_brn
       option search   = /synopsys/HSPICE/hspice/parts/comlinear
       option search   = /synopsys/HSPICE/hspice/parts/dio
       option search   = /synopsys/HSPICE/hspice/parts/fet
       option search   = /synopsys/HSPICE/hspice/parts/lin_tech
       option search   = /synopsys/HSPICE/hspice/parts/pci
       option search   = /synopsys/HSPICE/hspice/parts/signet
       option search   = /synopsys/HSPICE/hspice/parts/ti
       option search   = /synopsys/HSPICE/hspice/parts/tline
       option search   = /synopsys/HSPICE/hspice/parts/xilinx
       option runlvl
       option measfi   =     1.00
       option measfo   =     3.00
       option measdg   =     8.00
       option ingold   =     0.00
       option post
 init: end read circuit files,  cpu clock=  1.21E+00 memory=    152 kb
 init: begin check errors,  cpu clock=  1.21E+00
 init: end check errors,  cpu clock=  1.21E+00 memory=    152 kb
 init: begin setup matrix, pivot=     0 cpu clock=  1.21E+00
       establish matrix -- done,  cpu clock=  1.21E+00 memory=    157 kb
       re-order matrix -- done,  cpu clock=  1.21E+00 memory=    157 kb
 init: end setup matrix,  cpu clock=  1.22E+00 memory=    176 kb
 dcop: begin dcop,  cpu clock=  1.22E+00
 dcop: end dcop,  cpu clock=  1.22E+00 memory=    176 kb  tot_iter=       4
 output: calcdelay.tr8
 sweep: tran tran0    begin, stop_t=  1.00E-09 #sweeps=2001 cpu clock=  1.22E+00
 tran: time= 1.4821E-10 tot_iter=      12 conv_iter=       6 cpu clock= 1.22E+00
 tran: time= 2.4821E-10 tot_iter=      16 conv_iter=       8 cpu clock= 1.22E+00
 tran: time= 3.4821E-10 tot_iter=      20 conv_iter=      10 cpu clock= 1.22E+00
 tran: time= 4.2000E-10 tot_iter=      24 conv_iter=      12 cpu clock= 1.22E+00
 tran: time= 5.0000E-10 tot_iter=      93 conv_iter=      34 cpu clock= 1.23E+00
 tran: time= 6.3156E-10 tot_iter=     121 conv_iter=      48 cpu clock= 1.23E+00
 tran: time= 7.3156E-10 tot_iter=     125 conv_iter=      50 cpu clock= 1.23E+00
 tran: time= 8.3156E-10 tot_iter=     129 conv_iter=      52 cpu clock= 1.23E+00
 tran: time= 9.3156E-10 tot_iter=     133 conv_iter=      54 cpu clock= 1.23E+00
 tran: time= 1.0000E-09 tot_iter=     137 conv_iter=      56 cpu clock= 1.23E+00
 sweep: tran tran0    end,  cpu clock=  1.23E+00 memory=    176 kb
>info:         ***** hspice job concluded
 init: begin read circuit files,  cpu clock=  1.24E+00
       option search   = /synopsys/HSPICE/hspice/parts/ad
       option search   = /synopsys/HSPICE/hspice/parts/ad
       option search   = /synopsys/HSPICE/hspice/parts/behave
       option search   = /synopsys/HSPICE/hspice/parts/bjt
       option search   = /synopsys/HSPICE/hspice/parts/burr_brn
       option search   = /synopsys/HSPICE/hspice/parts/comlinear
       option search   = /synopsys/HSPICE/hspice/parts/dio
       option search   = /synopsys/HSPICE/hspice/parts/fet
       option search   = /synopsys/HSPICE/hspice/parts/lin_tech
       option search   = /synopsys/HSPICE/hspice/parts/pci
       option search   = /synopsys/HSPICE/hspice/parts/signet
       option search   = /synopsys/HSPICE/hspice/parts/ti
       option search   = /synopsys/HSPICE/hspice/parts/tline
       option search   = /synopsys/HSPICE/hspice/parts/xilinx
       option runlvl
       option measfi   =     1.00
       option measfo   =     3.00
       option measdg   =     8.00
       option ingold   =     0.00
       option post
 init: end read circuit files,  cpu clock=  1.24E+00 memory=    152 kb
 init: begin check errors,  cpu clock=  1.24E+00
 init: end check errors,  cpu clock=  1.25E+00 memory=    152 kb
 init: begin setup matrix, pivot=     0 cpu clock=  1.25E+00
       establish matrix -- done,  cpu clock=  1.25E+00 memory=    157 kb
       re-order matrix -- done,  cpu clock=  1.25E+00 memory=    157 kb
 init: end setup matrix,  cpu clock=  1.25E+00 memory=    176 kb
 dcop: begin dcop,  cpu clock=  1.25E+00
 dcop: end dcop,  cpu clock=  1.26E+00 memory=    176 kb  tot_iter=       4
 output: calcdelay.tr9
 sweep: tran tran0    begin, stop_t=  1.00E-09 #sweeps=2001 cpu clock=  1.26E+00
 tran: time= 1.4821E-10 tot_iter=      12 conv_iter=       6 cpu clock= 1.26E+00
 tran: time= 2.4821E-10 tot_iter=      16 conv_iter=       8 cpu clock= 1.26E+00
 tran: time= 3.4821E-10 tot_iter=      20 conv_iter=      10 cpu clock= 1.26E+00
 tran: time= 4.2250E-10 tot_iter=      24 conv_iter=      12 cpu clock= 1.26E+00
 tran: time= 5.0000E-10 tot_iter=      92 conv_iter=      34 cpu clock= 1.26E+00
 tran: time= 6.3532E-10 tot_iter=     118 conv_iter=      47 cpu clock= 1.26E+00
 tran: time= 7.3532E-10 tot_iter=     122 conv_iter=      49 cpu clock= 1.26E+00
 tran: time= 8.3532E-10 tot_iter=     126 conv_iter=      51 cpu clock= 1.26E+00
 tran: time= 9.3532E-10 tot_iter=     130 conv_iter=      53 cpu clock= 1.26E+00
 tran: time= 1.0000E-09 tot_iter=     134 conv_iter=      55 cpu clock= 1.26E+00
 sweep: tran tran0    end,  cpu clock=  1.26E+00 memory=    176 kb
>info:         ***** hspice job concluded
 init: begin read circuit files,  cpu clock=  1.28E+00
       option search   = /synopsys/HSPICE/hspice/parts/ad
       option search   = /synopsys/HSPICE/hspice/parts/ad
       option search   = /synopsys/HSPICE/hspice/parts/behave
       option search   = /synopsys/HSPICE/hspice/parts/bjt
       option search   = /synopsys/HSPICE/hspice/parts/burr_brn
       option search   = /synopsys/HSPICE/hspice/parts/comlinear
       option search   = /synopsys/HSPICE/hspice/parts/dio
       option search   = /synopsys/HSPICE/hspice/parts/fet
       option search   = /synopsys/HSPICE/hspice/parts/lin_tech
       option search   = /synopsys/HSPICE/hspice/parts/pci
       option search   = /synopsys/HSPICE/hspice/parts/signet
       option search   = /synopsys/HSPICE/hspice/parts/ti
       option search   = /synopsys/HSPICE/hspice/parts/tline
       option search   = /synopsys/HSPICE/hspice/parts/xilinx
       option runlvl
       option measfi   =     1.00
       option measfo   =     3.00
       option measdg   =     8.00
       option ingold   =     0.00
       option post
 init: end read circuit files,  cpu clock=  1.28E+00 memory=    152 kb
 init: begin check errors,  cpu clock=  1.28E+00
 init: end check errors,  cpu clock=  1.28E+00 memory=    152 kb
 init: begin setup matrix, pivot=     0 cpu clock=  1.28E+00
       establish matrix -- done,  cpu clock=  1.28E+00 memory=    157 kb
       re-order matrix -- done,  cpu clock=  1.28E+00 memory=    157 kb
 init: end setup matrix,  cpu clock=  1.29E+00 memory=    176 kb
 dcop: begin dcop,  cpu clock=  1.29E+00
 dcop: end dcop,  cpu clock=  1.29E+00 memory=    176 kb  tot_iter=       4
 output: calcdelay.tr10
 sweep: tran tran0    begin, stop_t=  1.00E-09 #sweeps=2001 cpu clock=  1.29E+00
 tran: time= 1.4821E-10 tot_iter=      12 conv_iter=       6 cpu clock= 1.29E+00
 tran: time= 2.4821E-10 tot_iter=      16 conv_iter=       8 cpu clock= 1.29E+00
 tran: time= 3.4821E-10 tot_iter=      20 conv_iter=      10 cpu clock= 1.29E+00
 tran: time= 4.2500E-10 tot_iter=      24 conv_iter=      12 cpu clock= 1.29E+00
 tran: time= 5.0000E-10 tot_iter=      93 conv_iter=      33 cpu clock= 1.30E+00
 tran: time= 6.2878E-10 tot_iter=     120 conv_iter=      46 cpu clock= 1.30E+00
 tran: time= 7.2878E-10 tot_iter=     124 conv_iter=      48 cpu clock= 1.30E+00
 tran: time= 8.2878E-10 tot_iter=     128 conv_iter=      50 cpu clock= 1.30E+00
 tran: time= 9.2878E-10 tot_iter=     132 conv_iter=      52 cpu clock= 1.30E+00
 tran: time= 1.0000E-09 tot_iter=     136 conv_iter=      54 cpu clock= 1.30E+00
 sweep: tran tran0    end,  cpu clock=  1.30E+00 memory=    176 kb
>info:         ***** hspice job concluded
 init: begin read circuit files,  cpu clock=  1.31E+00
       option search   = /synopsys/HSPICE/hspice/parts/ad
       option search   = /synopsys/HSPICE/hspice/parts/ad
       option search   = /synopsys/HSPICE/hspice/parts/behave
       option search   = /synopsys/HSPICE/hspice/parts/bjt
       option search   = /synopsys/HSPICE/hspice/parts/burr_brn
       option search   = /synopsys/HSPICE/hspice/parts/comlinear
       option search   = /synopsys/HSPICE/hspice/parts/dio
       option search   = /synopsys/HSPICE/hspice/parts/fet
       option search   = /synopsys/HSPICE/hspice/parts/lin_tech
       option search   = /synopsys/HSPICE/hspice/parts/pci
       option search   = /synopsys/HSPICE/hspice/parts/signet
       option search   = /synopsys/HSPICE/hspice/parts/ti
       option search   = /synopsys/HSPICE/hspice/parts/tline
       option search   = /synopsys/HSPICE/hspice/parts/xilinx
       option runlvl
       option measfi   =     1.00
       option measfo   =     3.00
       option measdg   =     8.00
       option ingold   =     0.00
       option post
 init: end read circuit files,  cpu clock=  1.31E+00 memory=    152 kb
 init: begin check errors,  cpu clock=  1.31E+00
 init: end check errors,  cpu clock=  1.32E+00 memory=    152 kb
 init: begin setup matrix, pivot=     0 cpu clock=  1.32E+00
       establish matrix -- done,  cpu clock=  1.32E+00 memory=    157 kb
       re-order matrix -- done,  cpu clock=  1.32E+00 memory=    157 kb
 init: end setup matrix,  cpu clock=  1.32E+00 memory=    176 kb
 dcop: begin dcop,  cpu clock=  1.32E+00
 dcop: end dcop,  cpu clock=  1.33E+00 memory=    176 kb  tot_iter=       4
 output: calcdelay.tr11
 sweep: tran tran0    begin, stop_t=  1.00E-09 #sweeps=2001 cpu clock=  1.33E+00
 tran: time= 1.4821E-10 tot_iter=      12 conv_iter=       6 cpu clock= 1.33E+00
 tran: time= 2.4821E-10 tot_iter=      16 conv_iter=       8 cpu clock= 1.33E+00
 tran: time= 3.4821E-10 tot_iter=      20 conv_iter=      10 cpu clock= 1.33E+00
 tran: time= 4.2500E-10 tot_iter=      24 conv_iter=      12 cpu clock= 1.33E+00
 tran: time= 5.0000E-10 tot_iter=      86 conv_iter=      31 cpu clock= 1.33E+00
 tran: time= 6.1604E-10 tot_iter=     113 conv_iter=      44 cpu clock= 1.33E+00
 tran: time= 7.1604E-10 tot_iter=     117 conv_iter=      46 cpu clock= 1.33E+00
 tran: time= 8.1604E-10 tot_iter=     121 conv_iter=      48 cpu clock= 1.33E+00
 tran: time= 9.1604E-10 tot_iter=     125 conv_iter=      50 cpu clock= 1.33E+00
 tran: time= 1.0000E-09 tot_iter=     129 conv_iter=      52 cpu clock= 1.33E+00
 sweep: tran tran0    end,  cpu clock=  1.33E+00 memory=    176 kb
>info:         ***** hspice job concluded
 init: begin read circuit files,  cpu clock=  1.35E+00
       option search   = /synopsys/HSPICE/hspice/parts/ad
       option search   = /synopsys/HSPICE/hspice/parts/ad
       option search   = /synopsys/HSPICE/hspice/parts/behave
       option search   = /synopsys/HSPICE/hspice/parts/bjt
       option search   = /synopsys/HSPICE/hspice/parts/burr_brn
       option search   = /synopsys/HSPICE/hspice/parts/comlinear
       option search   = /synopsys/HSPICE/hspice/parts/dio
       option search   = /synopsys/HSPICE/hspice/parts/fet
       option search   = /synopsys/HSPICE/hspice/parts/lin_tech
       option search   = /synopsys/HSPICE/hspice/parts/pci
       option search   = /synopsys/HSPICE/hspice/parts/signet
       option search   = /synopsys/HSPICE/hspice/parts/ti
       option search   = /synopsys/HSPICE/hspice/parts/tline
       option search   = /synopsys/HSPICE/hspice/parts/xilinx
       option runlvl
       option measfi   =     1.00
       option measfo   =     3.00
       option measdg   =     8.00
       option ingold   =     0.00
       option post
 init: end read circuit files,  cpu clock=  1.35E+00 memory=    152 kb
 init: begin check errors,  cpu clock=  1.35E+00
 init: end check errors,  cpu clock=  1.35E+00 memory=    152 kb
 init: begin setup matrix, pivot=     0 cpu clock=  1.35E+00
       establish matrix -- done,  cpu clock=  1.35E+00 memory=    157 kb
       re-order matrix -- done,  cpu clock=  1.35E+00 memory=    157 kb
 init: end setup matrix,  cpu clock=  1.36E+00 memory=    176 kb
 dcop: begin dcop,  cpu clock=  1.36E+00
 dcop: end dcop,  cpu clock=  1.36E+00 memory=    176 kb  tot_iter=       4
 output: calcdelay.tr12
 sweep: tran tran0    begin, stop_t=  1.00E-09 #sweeps=2001 cpu clock=  1.36E+00
 tran: time= 1.4821E-10 tot_iter=      12 conv_iter=       6 cpu clock= 1.36E+00
 tran: time= 2.4821E-10 tot_iter=      16 conv_iter=       8 cpu clock= 1.37E+00
 tran: time= 3.4821E-10 tot_iter=      20 conv_iter=      10 cpu clock= 1.37E+00
 tran: time= 4.2500E-10 tot_iter=      24 conv_iter=      12 cpu clock= 1.37E+00
 tran: time= 5.0000E-10 tot_iter=      83 conv_iter=      30 cpu clock= 1.37E+00
 tran: time= 6.2469E-10 tot_iter=     111 conv_iter=      43 cpu clock= 1.37E+00
 tran: time= 7.2469E-10 tot_iter=     115 conv_iter=      45 cpu clock= 1.37E+00
 tran: time= 8.2469E-10 tot_iter=     119 conv_iter=      47 cpu clock= 1.37E+00
 tran: time= 9.2469E-10 tot_iter=     123 conv_iter=      49 cpu clock= 1.37E+00
 tran: time= 1.0000E-09 tot_iter=     127 conv_iter=      51 cpu clock= 1.37E+00
 sweep: tran tran0    end,  cpu clock=  1.37E+00 memory=    176 kb
>info:         ***** hspice job concluded
 init: begin read circuit files,  cpu clock=  1.38E+00
       option search   = /synopsys/HSPICE/hspice/parts/ad
       option search   = /synopsys/HSPICE/hspice/parts/ad
       option search   = /synopsys/HSPICE/hspice/parts/behave
       option search   = /synopsys/HSPICE/hspice/parts/bjt
       option search   = /synopsys/HSPICE/hspice/parts/burr_brn
       option search   = /synopsys/HSPICE/hspice/parts/comlinear
       option search   = /synopsys/HSPICE/hspice/parts/dio
       option search   = /synopsys/HSPICE/hspice/parts/fet
       option search   = /synopsys/HSPICE/hspice/parts/lin_tech
       option search   = /synopsys/HSPICE/hspice/parts/pci
       option search   = /synopsys/HSPICE/hspice/parts/signet
       option search   = /synopsys/HSPICE/hspice/parts/ti
       option search   = /synopsys/HSPICE/hspice/parts/tline
       option search   = /synopsys/HSPICE/hspice/parts/xilinx
       option runlvl
       option measfi   =     1.00
       option measfo   =     3.00
       option measdg   =     8.00
       option ingold   =     0.00
       option post
 init: end read circuit files,  cpu clock=  1.38E+00 memory=    156 kb
 init: begin check errors,  cpu clock=  1.38E+00
 init: end check errors,  cpu clock=  1.39E+00 memory=    156 kb
 init: begin setup matrix, pivot=     0 cpu clock=  1.39E+00
       establish matrix -- done,  cpu clock=  1.39E+00 memory=    161 kb
       re-order matrix -- done,  cpu clock=  1.39E+00 memory=    161 kb
 init: end setup matrix,  cpu clock=  1.39E+00 memory=    180 kb
 dcop: begin dcop,  cpu clock=  1.39E+00
 dcop: end dcop,  cpu clock=  1.40E+00 memory=    180 kb  tot_iter=       4
 output: calcdelay.tr13
 sweep: tran tran0    begin, stop_t=  1.00E-09 #sweeps=2001 cpu clock=  1.40E+00
 tran: time= 1.4821E-10 tot_iter=      12 conv_iter=       6 cpu clock= 1.40E+00
 tran: time= 2.4821E-10 tot_iter=      16 conv_iter=       8 cpu clock= 1.40E+00
 tran: time= 3.4821E-10 tot_iter=      20 conv_iter=      10 cpu clock= 1.40E+00
 tran: time= 4.2500E-10 tot_iter=      24 conv_iter=      12 cpu clock= 1.40E+00
 tran: time= 5.0000E-10 tot_iter=      81 conv_iter=      30 cpu clock= 1.40E+00
 tran: time= 6.1514E-10 tot_iter=     107 conv_iter=      42 cpu clock= 1.40E+00
 tran: time= 7.1514E-10 tot_iter=     111 conv_iter=      44 cpu clock= 1.40E+00
 tran: time= 8.1514E-10 tot_iter=     115 conv_iter=      46 cpu clock= 1.40E+00
 tran: time= 9.1514E-10 tot_iter=     119 conv_iter=      48 cpu clock= 1.40E+00
 tran: time= 1.0000E-09 tot_iter=     123 conv_iter=      50 cpu clock= 1.40E+00
 sweep: tran tran0    end,  cpu clock=  1.40E+00 memory=    180 kb
>info:         ***** hspice job concluded
 init: begin read circuit files,  cpu clock=  1.42E+00
       option search   = /synopsys/HSPICE/hspice/parts/ad
       option search   = /synopsys/HSPICE/hspice/parts/ad
       option search   = /synopsys/HSPICE/hspice/parts/behave
       option search   = /synopsys/HSPICE/hspice/parts/bjt
       option search   = /synopsys/HSPICE/hspice/parts/burr_brn
       option search   = /synopsys/HSPICE/hspice/parts/comlinear
       option search   = /synopsys/HSPICE/hspice/parts/dio
       option search   = /synopsys/HSPICE/hspice/parts/fet
       option search   = /synopsys/HSPICE/hspice/parts/lin_tech
       option search   = /synopsys/HSPICE/hspice/parts/pci
       option search   = /synopsys/HSPICE/hspice/parts/signet
       option search   = /synopsys/HSPICE/hspice/parts/ti
       option search   = /synopsys/HSPICE/hspice/parts/tline
       option search   = /synopsys/HSPICE/hspice/parts/xilinx
       option runlvl
       option measfi   =     1.00
       option measfo   =     3.00
       option measdg   =     8.00
       option ingold   =     0.00
       option post
 init: end read circuit files,  cpu clock=  1.42E+00 memory=    156 kb
 init: begin check errors,  cpu clock=  1.42E+00
 init: end check errors,  cpu clock=  1.42E+00 memory=    156 kb
 init: begin setup matrix, pivot=     0 cpu clock=  1.42E+00
       establish matrix -- done,  cpu clock=  1.42E+00 memory=    161 kb
       re-order matrix -- done,  cpu clock=  1.42E+00 memory=    161 kb
 init: end setup matrix,  cpu clock=  1.43E+00 memory=    180 kb
 dcop: begin dcop,  cpu clock=  1.43E+00
 dcop: end dcop,  cpu clock=  1.43E+00 memory=    180 kb  tot_iter=       4
 output: calcdelay.tr14
 sweep: tran tran0    begin, stop_t=  1.00E-09 #sweeps=2001 cpu clock=  1.43E+00
 tran: time= 1.4821E-10 tot_iter=      12 conv_iter=       6 cpu clock= 1.43E+00
 tran: time= 2.4821E-10 tot_iter=      16 conv_iter=       8 cpu clock= 1.43E+00
 tran: time= 3.4821E-10 tot_iter=      20 conv_iter=      10 cpu clock= 1.43E+00
 tran: time= 4.2500E-10 tot_iter=      24 conv_iter=      12 cpu clock= 1.43E+00
 tran: time= 5.0000E-10 tot_iter=      83 conv_iter=      31 cpu clock= 1.44E+00
 tran: time= 6.3293E-10 tot_iter=     107 conv_iter=      43 cpu clock= 1.44E+00
 tran: time= 7.3293E-10 tot_iter=     111 conv_iter=      45 cpu clock= 1.44E+00
 tran: time= 8.3293E-10 tot_iter=     115 conv_iter=      47 cpu clock= 1.44E+00
 tran: time= 9.3293E-10 tot_iter=     119 conv_iter=      49 cpu clock= 1.44E+00
 tran: time= 1.0000E-09 tot_iter=     123 conv_iter=      51 cpu clock= 1.44E+00
 sweep: tran tran0    end,  cpu clock=  1.44E+00 memory=    180 kb
>info:         ***** hspice job concluded
 init: begin read circuit files,  cpu clock=  1.45E+00
       option search   = /synopsys/HSPICE/hspice/parts/ad
       option search   = /synopsys/HSPICE/hspice/parts/ad
       option search   = /synopsys/HSPICE/hspice/parts/behave
       option search   = /synopsys/HSPICE/hspice/parts/bjt
       option search   = /synopsys/HSPICE/hspice/parts/burr_brn
       option search   = /synopsys/HSPICE/hspice/parts/comlinear
       option search   = /synopsys/HSPICE/hspice/parts/dio
       option search   = /synopsys/HSPICE/hspice/parts/fet
       option search   = /synopsys/HSPICE/hspice/parts/lin_tech
       option search   = /synopsys/HSPICE/hspice/parts/pci
       option search   = /synopsys/HSPICE/hspice/parts/signet
       option search   = /synopsys/HSPICE/hspice/parts/ti
       option search   = /synopsys/HSPICE/hspice/parts/tline
       option search   = /synopsys/HSPICE/hspice/parts/xilinx
       option runlvl
       option measfi   =     1.00
       option measfo   =     3.00
       option measdg   =     8.00
       option ingold   =     0.00
       option post
 init: end read circuit files,  cpu clock=  1.45E+00 memory=    156 kb
 init: begin check errors,  cpu clock=  1.45E+00
 init: end check errors,  cpu clock=  1.46E+00 memory=    156 kb
 init: begin setup matrix, pivot=     0 cpu clock=  1.46E+00
       establish matrix -- done,  cpu clock=  1.46E+00 memory=    161 kb
       re-order matrix -- done,  cpu clock=  1.46E+00 memory=    161 kb
 init: end setup matrix,  cpu clock=  1.46E+00 memory=    180 kb
 dcop: begin dcop,  cpu clock=  1.46E+00
 dcop: end dcop,  cpu clock=  1.47E+00 memory=    180 kb  tot_iter=       4
 output: calcdelay.tr15
 sweep: tran tran0    begin, stop_t=  1.00E-09 #sweeps=2001 cpu clock=  1.47E+00
 tran: time= 1.4821E-10 tot_iter=      12 conv_iter=       6 cpu clock= 1.47E+00
 tran: time= 2.4821E-10 tot_iter=      16 conv_iter=       8 cpu clock= 1.47E+00
 tran: time= 3.4821E-10 tot_iter=      20 conv_iter=      10 cpu clock= 1.47E+00
 tran: time= 4.2500E-10 tot_iter=      24 conv_iter=      12 cpu clock= 1.47E+00
 tran: time= 5.0000E-10 tot_iter=      78 conv_iter=      29 cpu clock= 1.47E+00
 tran: time= 6.2217E-10 tot_iter=     103 conv_iter=      41 cpu clock= 1.47E+00
 tran: time= 7.2217E-10 tot_iter=     107 conv_iter=      43 cpu clock= 1.47E+00
 tran: time= 8.2217E-10 tot_iter=     111 conv_iter=      45 cpu clock= 1.47E+00
 tran: time= 9.2217E-10 tot_iter=     115 conv_iter=      47 cpu clock= 1.47E+00
 tran: time= 1.0000E-09 tot_iter=     119 conv_iter=      49 cpu clock= 1.47E+00
 sweep: tran tran0    end,  cpu clock=  1.47E+00 memory=    180 kb
>info:         ***** hspice job concluded
 init: begin read circuit files,  cpu clock=  1.49E+00
       option search   = /synopsys/HSPICE/hspice/parts/ad
       option search   = /synopsys/HSPICE/hspice/parts/ad
       option search   = /synopsys/HSPICE/hspice/parts/behave
       option search   = /synopsys/HSPICE/hspice/parts/bjt
       option search   = /synopsys/HSPICE/hspice/parts/burr_brn
       option search   = /synopsys/HSPICE/hspice/parts/comlinear
       option search   = /synopsys/HSPICE/hspice/parts/dio
       option search   = /synopsys/HSPICE/hspice/parts/fet
       option search   = /synopsys/HSPICE/hspice/parts/lin_tech
       option search   = /synopsys/HSPICE/hspice/parts/pci
       option search   = /synopsys/HSPICE/hspice/parts/signet
       option search   = /synopsys/HSPICE/hspice/parts/ti
       option search   = /synopsys/HSPICE/hspice/parts/tline
       option search   = /synopsys/HSPICE/hspice/parts/xilinx
       option runlvl
       option measfi   =     1.00
       option measfo   =     3.00
       option measdg   =     8.00
       option ingold   =     0.00
       option post
 init: end read circuit files,  cpu clock=  1.49E+00 memory=    156 kb
 init: begin check errors,  cpu clock=  1.49E+00
 init: end check errors,  cpu clock=  1.49E+00 memory=    156 kb
 init: begin setup matrix, pivot=     0 cpu clock=  1.49E+00
       establish matrix -- done,  cpu clock=  1.49E+00 memory=    161 kb
       re-order matrix -- done,  cpu clock=  1.49E+00 memory=    161 kb
 init: end setup matrix,  cpu clock=  1.50E+00 memory=    180 kb
 dcop: begin dcop,  cpu clock=  1.50E+00
 dcop: end dcop,  cpu clock=  1.50E+00 memory=    180 kb  tot_iter=       4
 output: calcdelay.tr16
 sweep: tran tran0    begin, stop_t=  1.00E-09 #sweeps=2001 cpu clock=  1.51E+00
 tran: time= 1.4821E-10 tot_iter=      12 conv_iter=       6 cpu clock= 1.51E+00
 tran: time= 2.4821E-10 tot_iter=      16 conv_iter=       8 cpu clock= 1.51E+00
 tran: time= 3.4821E-10 tot_iter=      20 conv_iter=      10 cpu clock= 1.51E+00
 tran: time= 4.2500E-10 tot_iter=      24 conv_iter=      12 cpu clock= 1.51E+00
 tran: time= 5.0000E-10 tot_iter=      74 conv_iter=      28 cpu clock= 1.51E+00
 tran: time= 6.1287E-10 tot_iter=     102 conv_iter=      41 cpu clock= 1.51E+00
 tran: time= 7.1287E-10 tot_iter=     106 conv_iter=      43 cpu clock= 1.51E+00
 tran: time= 8.1287E-10 tot_iter=     110 conv_iter=      45 cpu clock= 1.51E+00
 tran: time= 9.1287E-10 tot_iter=     114 conv_iter=      47 cpu clock= 1.51E+00
 tran: time= 1.0000E-09 tot_iter=     118 conv_iter=      49 cpu clock= 1.51E+00
 sweep: tran tran0    end,  cpu clock=  1.51E+00 memory=    180 kb
>info:         ***** hspice job concluded
 init: begin read circuit files,  cpu clock=  1.52E+00
       option search   = /synopsys/HSPICE/hspice/parts/ad
       option search   = /synopsys/HSPICE/hspice/parts/ad
       option search   = /synopsys/HSPICE/hspice/parts/behave
       option search   = /synopsys/HSPICE/hspice/parts/bjt
       option search   = /synopsys/HSPICE/hspice/parts/burr_brn
       option search   = /synopsys/HSPICE/hspice/parts/comlinear
       option search   = /synopsys/HSPICE/hspice/parts/dio
       option search   = /synopsys/HSPICE/hspice/parts/fet
       option search   = /synopsys/HSPICE/hspice/parts/lin_tech
       option search   = /synopsys/HSPICE/hspice/parts/pci
       option search   = /synopsys/HSPICE/hspice/parts/signet
       option search   = /synopsys/HSPICE/hspice/parts/ti
       option search   = /synopsys/HSPICE/hspice/parts/tline
       option search   = /synopsys/HSPICE/hspice/parts/xilinx
       option runlvl
       option measfi   =     1.00
       option measfo   =     3.00
       option measdg   =     8.00
       option ingold   =     0.00
       option post
 init: end read circuit files,  cpu clock=  1.53E+00 memory=    156 kb
 init: begin check errors,  cpu clock=  1.53E+00
 init: end check errors,  cpu clock=  1.53E+00 memory=    156 kb
 init: begin setup matrix, pivot=     0 cpu clock=  1.53E+00
       establish matrix -- done,  cpu clock=  1.53E+00 memory=    161 kb
       re-order matrix -- done,  cpu clock=  1.53E+00 memory=    161 kb
 init: end setup matrix,  cpu clock=  1.54E+00 memory=    180 kb
 dcop: begin dcop,  cpu clock=  1.54E+00
 dcop: end dcop,  cpu clock=  1.54E+00 memory=    180 kb  tot_iter=       4
 output: calcdelay.tr17
 sweep: tran tran0    begin, stop_t=  1.00E-09 #sweeps=2001 cpu clock=  1.54E+00
 tran: time= 1.4821E-10 tot_iter=      12 conv_iter=       6 cpu clock= 1.54E+00
 tran: time= 2.4821E-10 tot_iter=      16 conv_iter=       8 cpu clock= 1.54E+00
 tran: time= 3.4821E-10 tot_iter=      20 conv_iter=      10 cpu clock= 1.54E+00
 tran: time= 4.2500E-10 tot_iter=      24 conv_iter=      12 cpu clock= 1.54E+00
 tran: time= 5.0000E-10 tot_iter=      74 conv_iter=      28 cpu clock= 1.54E+00
 tran: time= 6.2646E-10 tot_iter=     103 conv_iter=      41 cpu clock= 1.55E+00
 tran: time= 7.2646E-10 tot_iter=     107 conv_iter=      43 cpu clock= 1.55E+00
 tran: time= 8.2646E-10 tot_iter=     111 conv_iter=      45 cpu clock= 1.55E+00
 tran: time= 9.2646E-10 tot_iter=     115 conv_iter=      47 cpu clock= 1.55E+00
 tran: time= 1.0000E-09 tot_iter=     119 conv_iter=      49 cpu clock= 1.55E+00
 sweep: tran tran0    end,  cpu clock=  1.55E+00 memory=    180 kb
>info:         ***** hspice job concluded
 init: begin read circuit files,  cpu clock=  1.56E+00
       option search   = /synopsys/HSPICE/hspice/parts/ad
       option search   = /synopsys/HSPICE/hspice/parts/ad
       option search   = /synopsys/HSPICE/hspice/parts/behave
       option search   = /synopsys/HSPICE/hspice/parts/bjt
       option search   = /synopsys/HSPICE/hspice/parts/burr_brn
       option search   = /synopsys/HSPICE/hspice/parts/comlinear
       option search   = /synopsys/HSPICE/hspice/parts/dio
       option search   = /synopsys/HSPICE/hspice/parts/fet
       option search   = /synopsys/HSPICE/hspice/parts/lin_tech
       option search   = /synopsys/HSPICE/hspice/parts/pci
       option search   = /synopsys/HSPICE/hspice/parts/signet
       option search   = /synopsys/HSPICE/hspice/parts/ti
       option search   = /synopsys/HSPICE/hspice/parts/tline
       option search   = /synopsys/HSPICE/hspice/parts/xilinx
       option runlvl
       option measfi   =     1.00
       option measfo   =     3.00
       option measdg   =     8.00
       option ingold   =     0.00
       option post
 init: end read circuit files,  cpu clock=  1.56E+00 memory=    156 kb
 init: begin check errors,  cpu clock=  1.56E+00
 init: end check errors,  cpu clock=  1.57E+00 memory=    156 kb
 init: begin setup matrix, pivot=     0 cpu clock=  1.57E+00
       establish matrix -- done,  cpu clock=  1.57E+00 memory=    161 kb
       re-order matrix -- done,  cpu clock=  1.57E+00 memory=    161 kb
 init: end setup matrix,  cpu clock=  1.57E+00 memory=    180 kb
 dcop: begin dcop,  cpu clock=  1.57E+00
 dcop: end dcop,  cpu clock=  1.58E+00 memory=    180 kb  tot_iter=       4
 output: calcdelay.tr18
 sweep: tran tran0    begin, stop_t=  1.00E-09 #sweeps=2001 cpu clock=  1.58E+00
 tran: time= 1.4821E-10 tot_iter=      12 conv_iter=       6 cpu clock= 1.58E+00
 tran: time= 2.4821E-10 tot_iter=      16 conv_iter=       8 cpu clock= 1.58E+00
 tran: time= 3.4821E-10 tot_iter=      20 conv_iter=      10 cpu clock= 1.58E+00
 tran: time= 4.2500E-10 tot_iter=      24 conv_iter=      12 cpu clock= 1.58E+00
 tran: time= 5.0000E-10 tot_iter=      76 conv_iter=      29 cpu clock= 1.58E+00
 tran: time= 6.4441E-10 tot_iter=     110 conv_iter=      44 cpu clock= 1.58E+00
 tran: time= 7.4441E-10 tot_iter=     114 conv_iter=      46 cpu clock= 1.58E+00
 tran: time= 8.4441E-10 tot_iter=     118 conv_iter=      48 cpu clock= 1.58E+00
 tran: time= 9.4441E-10 tot_iter=     122 conv_iter=      50 cpu clock= 1.58E+00
 tran: time= 1.0000E-09 tot_iter=     126 conv_iter=      52 cpu clock= 1.58E+00
 sweep: tran tran0    end,  cpu clock=  1.58E+00 memory=    180 kb
>info:         ***** hspice job concluded
 init: begin read circuit files,  cpu clock=  1.60E+00
       option search   = /synopsys/HSPICE/hspice/parts/ad
       option search   = /synopsys/HSPICE/hspice/parts/ad
       option search   = /synopsys/HSPICE/hspice/parts/behave
       option search   = /synopsys/HSPICE/hspice/parts/bjt
       option search   = /synopsys/HSPICE/hspice/parts/burr_brn
       option search   = /synopsys/HSPICE/hspice/parts/comlinear
       option search   = /synopsys/HSPICE/hspice/parts/dio
       option search   = /synopsys/HSPICE/hspice/parts/fet
       option search   = /synopsys/HSPICE/hspice/parts/lin_tech
       option search   = /synopsys/HSPICE/hspice/parts/pci
       option search   = /synopsys/HSPICE/hspice/parts/signet
       option search   = /synopsys/HSPICE/hspice/parts/ti
       option search   = /synopsys/HSPICE/hspice/parts/tline
       option search   = /synopsys/HSPICE/hspice/parts/xilinx
       option runlvl
       option measfi   =     1.00
       option measfo   =     3.00
       option measdg   =     8.00
       option ingold   =     0.00
       option post
 init: end read circuit files,  cpu clock=  1.60E+00 memory=    156 kb
 init: begin check errors,  cpu clock=  1.60E+00
 init: end check errors,  cpu clock=  1.60E+00 memory=    156 kb
 init: begin setup matrix, pivot=     0 cpu clock=  1.60E+00
       establish matrix -- done,  cpu clock=  1.60E+00 memory=    161 kb
       re-order matrix -- done,  cpu clock=  1.60E+00 memory=    161 kb
 init: end setup matrix,  cpu clock=  1.61E+00 memory=    180 kb
 dcop: begin dcop,  cpu clock=  1.61E+00
 dcop: end dcop,  cpu clock=  1.61E+00 memory=    180 kb  tot_iter=       4
 output: calcdelay.tr19
 sweep: tran tran0    begin, stop_t=  1.00E-09 #sweeps=2001 cpu clock=  1.61E+00
 tran: time= 1.4821E-10 tot_iter=      12 conv_iter=       6 cpu clock= 1.61E+00
 tran: time= 2.4821E-10 tot_iter=      16 conv_iter=       8 cpu clock= 1.61E+00
 tran: time= 3.4821E-10 tot_iter=      20 conv_iter=      10 cpu clock= 1.61E+00
 tran: time= 4.2500E-10 tot_iter=      24 conv_iter=      12 cpu clock= 1.61E+00
 tran: time= 5.0000E-10 tot_iter=      72 conv_iter=      28 cpu clock= 1.62E+00
 tran: time= 6.0892E-10 tot_iter=     108 conv_iter=      43 cpu clock= 1.62E+00
 tran: time= 7.0892E-10 tot_iter=     112 conv_iter=      45 cpu clock= 1.62E+00
 tran: time= 8.0892E-10 tot_iter=     116 conv_iter=      47 cpu clock= 1.62E+00
 tran: time= 9.0892E-10 tot_iter=     120 conv_iter=      49 cpu clock= 1.62E+00
 tran: time= 1.0000E-09 tot_iter=     124 conv_iter=      51 cpu clock= 1.62E+00
 sweep: tran tran0    end,  cpu clock=  1.62E+00 memory=    180 kb
>info:         ***** hspice job concluded
 init: begin read circuit files,  cpu clock=  1.63E+00
       option search   = /synopsys/HSPICE/hspice/parts/ad
       option search   = /synopsys/HSPICE/hspice/parts/ad
       option search   = /synopsys/HSPICE/hspice/parts/behave
       option search   = /synopsys/HSPICE/hspice/parts/bjt
       option search   = /synopsys/HSPICE/hspice/parts/burr_brn
       option search   = /synopsys/HSPICE/hspice/parts/comlinear
       option search   = /synopsys/HSPICE/hspice/parts/dio
       option search   = /synopsys/HSPICE/hspice/parts/fet
       option search   = /synopsys/HSPICE/hspice/parts/lin_tech
       option search   = /synopsys/HSPICE/hspice/parts/pci
       option search   = /synopsys/HSPICE/hspice/parts/signet
       option search   = /synopsys/HSPICE/hspice/parts/ti
       option search   = /synopsys/HSPICE/hspice/parts/tline
       option search   = /synopsys/HSPICE/hspice/parts/xilinx
       option runlvl
       option measfi   =     1.00
       option measfo   =     3.00
       option measdg   =     8.00
       option ingold   =     0.00
       option post
 init: end read circuit files,  cpu clock=  1.63E+00 memory=    156 kb
 init: begin check errors,  cpu clock=  1.63E+00
 init: end check errors,  cpu clock=  1.64E+00 memory=    156 kb
 init: begin setup matrix, pivot=     0 cpu clock=  1.64E+00
       establish matrix -- done,  cpu clock=  1.64E+00 memory=    161 kb
       re-order matrix -- done,  cpu clock=  1.64E+00 memory=    161 kb
 init: end setup matrix,  cpu clock=  1.64E+00 memory=    180 kb
 dcop: begin dcop,  cpu clock=  1.64E+00
 dcop: end dcop,  cpu clock=  1.65E+00 memory=    180 kb  tot_iter=       4
 output: calcdelay.tr20
 sweep: tran tran0    begin, stop_t=  1.00E-09 #sweeps=2001 cpu clock=  1.65E+00
 tran: time= 1.4821E-10 tot_iter=      12 conv_iter=       6 cpu clock= 1.65E+00
 tran: time= 2.4821E-10 tot_iter=      16 conv_iter=       8 cpu clock= 1.65E+00
 tran: time= 3.4821E-10 tot_iter=      20 conv_iter=      10 cpu clock= 1.65E+00
 tran: time= 4.2500E-10 tot_iter=      24 conv_iter=      12 cpu clock= 1.65E+00
 tran: time= 5.0000E-10 tot_iter=      60 conv_iter=      23 cpu clock= 1.65E+00
 tran: time= 6.2314E-10 tot_iter=      98 conv_iter=      38 cpu clock= 1.65E+00
 tran: time= 7.2314E-10 tot_iter=     102 conv_iter=      40 cpu clock= 1.65E+00
 tran: time= 8.2314E-10 tot_iter=     106 conv_iter=      42 cpu clock= 1.65E+00
 tran: time= 9.2314E-10 tot_iter=     110 conv_iter=      44 cpu clock= 1.65E+00
 tran: time= 1.0000E-09 tot_iter=     114 conv_iter=      46 cpu clock= 1.65E+00
 sweep: tran tran0    end,  cpu clock=  1.65E+00 memory=    180 kb
>info:         ***** hspice job concluded
 init: begin read circuit files,  cpu clock=  1.67E+00
       option search   = /synopsys/HSPICE/hspice/parts/ad
       option search   = /synopsys/HSPICE/hspice/parts/ad
       option search   = /synopsys/HSPICE/hspice/parts/behave
       option search   = /synopsys/HSPICE/hspice/parts/bjt
       option search   = /synopsys/HSPICE/hspice/parts/burr_brn
       option search   = /synopsys/HSPICE/hspice/parts/comlinear
       option search   = /synopsys/HSPICE/hspice/parts/dio
       option search   = /synopsys/HSPICE/hspice/parts/fet
       option search   = /synopsys/HSPICE/hspice/parts/lin_tech
       option search   = /synopsys/HSPICE/hspice/parts/pci
       option search   = /synopsys/HSPICE/hspice/parts/signet
       option search   = /synopsys/HSPICE/hspice/parts/ti
       option search   = /synopsys/HSPICE/hspice/parts/tline
       option search   = /synopsys/HSPICE/hspice/parts/xilinx
       option runlvl
       option measfi   =     1.00
       option measfo   =     3.00
       option measdg   =     8.00
       option ingold   =     0.00
       option post
 init: end read circuit files,  cpu clock=  1.67E+00 memory=    156 kb
 init: begin check errors,  cpu clock=  1.67E+00
 init: end check errors,  cpu clock=  1.67E+00 memory=    156 kb
 init: begin setup matrix, pivot=     0 cpu clock=  1.67E+00
       establish matrix -- done,  cpu clock=  1.67E+00 memory=    161 kb
       re-order matrix -- done,  cpu clock=  1.67E+00 memory=    161 kb
 init: end setup matrix,  cpu clock=  1.68E+00 memory=    180 kb
 dcop: begin dcop,  cpu clock=  1.68E+00
 dcop: end dcop,  cpu clock=  1.68E+00 memory=    180 kb  tot_iter=       4
 output: calcdelay.tr21
 sweep: tran tran0    begin, stop_t=  1.00E-09 #sweeps=2001 cpu clock=  1.68E+00
 tran: time= 1.4821E-10 tot_iter=      12 conv_iter=       6 cpu clock= 1.68E+00
 tran: time= 2.4821E-10 tot_iter=      16 conv_iter=       8 cpu clock= 1.68E+00
 tran: time= 3.4821E-10 tot_iter=      20 conv_iter=      10 cpu clock= 1.68E+00
 tran: time= 4.2500E-10 tot_iter=      24 conv_iter=      12 cpu clock= 1.68E+00
 tran: time= 5.0000E-10 tot_iter=      63 conv_iter=      25 cpu clock= 1.69E+00
 tran: time= 6.1427E-10 tot_iter=     108 conv_iter=      43 cpu clock= 1.69E+00
 tran: time= 7.1427E-10 tot_iter=     112 conv_iter=      45 cpu clock= 1.69E+00
 tran: time= 8.1427E-10 tot_iter=     116 conv_iter=      47 cpu clock= 1.69E+00
 tran: time= 9.1427E-10 tot_iter=     120 conv_iter=      49 cpu clock= 1.69E+00
 tran: time= 1.0000E-09 tot_iter=     124 conv_iter=      51 cpu clock= 1.69E+00
 sweep: tran tran0    end,  cpu clock=  1.69E+00 memory=    180 kb
>info:         ***** hspice job concluded
 init: begin read circuit files,  cpu clock=  1.70E+00
       option search   = /synopsys/HSPICE/hspice/parts/ad
       option search   = /synopsys/HSPICE/hspice/parts/ad
       option search   = /synopsys/HSPICE/hspice/parts/behave
       option search   = /synopsys/HSPICE/hspice/parts/bjt
       option search   = /synopsys/HSPICE/hspice/parts/burr_brn
       option search   = /synopsys/HSPICE/hspice/parts/comlinear
       option search   = /synopsys/HSPICE/hspice/parts/dio
       option search   = /synopsys/HSPICE/hspice/parts/fet
       option search   = /synopsys/HSPICE/hspice/parts/lin_tech
       option search   = /synopsys/HSPICE/hspice/parts/pci
       option search   = /synopsys/HSPICE/hspice/parts/signet
       option search   = /synopsys/HSPICE/hspice/parts/ti
       option search   = /synopsys/HSPICE/hspice/parts/tline
       option search   = /synopsys/HSPICE/hspice/parts/xilinx
       option runlvl
       option measfi   =     1.00
       option measfo   =     3.00
       option measdg   =     8.00
       option ingold   =     0.00
       option post
 init: end read circuit files,  cpu clock=  1.70E+00 memory=    156 kb
 init: begin check errors,  cpu clock=  1.70E+00
 init: end check errors,  cpu clock=  1.71E+00 memory=    156 kb
 init: begin setup matrix, pivot=     0 cpu clock=  1.71E+00
       establish matrix -- done,  cpu clock=  1.71E+00 memory=    161 kb
       re-order matrix -- done,  cpu clock=  1.71E+00 memory=    161 kb
 init: end setup matrix,  cpu clock=  1.71E+00 memory=    180 kb
 dcop: begin dcop,  cpu clock=  1.71E+00
 dcop: end dcop,  cpu clock=  1.72E+00 memory=    180 kb  tot_iter=       4
 output: calcdelay.tr22
 sweep: tran tran0    begin, stop_t=  1.00E-09 #sweeps=2001 cpu clock=  1.72E+00
 tran: time= 1.4821E-10 tot_iter=      12 conv_iter=       6 cpu clock= 1.72E+00
 tran: time= 2.4821E-10 tot_iter=      16 conv_iter=       8 cpu clock= 1.72E+00
 tran: time= 3.4821E-10 tot_iter=      20 conv_iter=      10 cpu clock= 1.72E+00
 tran: time= 4.2500E-10 tot_iter=      24 conv_iter=      12 cpu clock= 1.72E+00
 tran: time= 5.0000E-10 tot_iter=      59 conv_iter=      23 cpu clock= 1.72E+00
 tran: time= 6.0857E-10 tot_iter=     106 conv_iter=      41 cpu clock= 1.72E+00
 tran: time= 7.0300E-10 tot_iter=     110 conv_iter=      43 cpu clock= 1.72E+00
 tran: time= 8.0300E-10 tot_iter=     114 conv_iter=      45 cpu clock= 1.72E+00
 tran: time= 9.0300E-10 tot_iter=     118 conv_iter=      47 cpu clock= 1.72E+00
 tran: time= 1.0000E-09 tot_iter=     122 conv_iter=      49 cpu clock= 1.72E+00
 sweep: tran tran0    end,  cpu clock=  1.72E+00 memory=    180 kb
>info:         ***** hspice job concluded
 init: begin read circuit files,  cpu clock=  1.74E+00
       option search   = /synopsys/HSPICE/hspice/parts/ad
       option search   = /synopsys/HSPICE/hspice/parts/ad
       option search   = /synopsys/HSPICE/hspice/parts/behave
       option search   = /synopsys/HSPICE/hspice/parts/bjt
       option search   = /synopsys/HSPICE/hspice/parts/burr_brn
       option search   = /synopsys/HSPICE/hspice/parts/comlinear
       option search   = /synopsys/HSPICE/hspice/parts/dio
       option search   = /synopsys/HSPICE/hspice/parts/fet
       option search   = /synopsys/HSPICE/hspice/parts/lin_tech
       option search   = /synopsys/HSPICE/hspice/parts/pci
       option search   = /synopsys/HSPICE/hspice/parts/signet
       option search   = /synopsys/HSPICE/hspice/parts/ti
       option search   = /synopsys/HSPICE/hspice/parts/tline
       option search   = /synopsys/HSPICE/hspice/parts/xilinx
       option runlvl
       option measfi   =     1.00
       option measfo   =     3.00
       option measdg   =     8.00
       option ingold   =     0.00
       option post
 init: end read circuit files,  cpu clock=  1.74E+00 memory=    156 kb
 init: begin check errors,  cpu clock=  1.74E+00
 init: end check errors,  cpu clock=  1.74E+00 memory=    156 kb
 init: begin setup matrix, pivot=     0 cpu clock=  1.74E+00
       establish matrix -- done,  cpu clock=  1.74E+00 memory=    161 kb
       re-order matrix -- done,  cpu clock=  1.74E+00 memory=    161 kb
 init: end setup matrix,  cpu clock=  1.75E+00 memory=    180 kb
 dcop: begin dcop,  cpu clock=  1.75E+00
 dcop: end dcop,  cpu clock=  1.75E+00 memory=    180 kb  tot_iter=       4
 output: calcdelay.tr23
 sweep: tran tran0    begin, stop_t=  1.00E-09 #sweeps=2001 cpu clock=  1.75E+00
 tran: time= 1.4821E-10 tot_iter=      12 conv_iter=       6 cpu clock= 1.76E+00
 tran: time= 2.4821E-10 tot_iter=      16 conv_iter=       8 cpu clock= 1.76E+00
 tran: time= 3.4821E-10 tot_iter=      20 conv_iter=      10 cpu clock= 1.76E+00
 tran: time= 4.2500E-10 tot_iter=      24 conv_iter=      12 cpu clock= 1.76E+00
 tran: time= 5.0000E-10 tot_iter=      58 conv_iter=      23 cpu clock= 1.76E+00
 tran: time= 6.0380E-10 tot_iter=     108 conv_iter=      43 cpu clock= 1.76E+00
 tran: time= 7.4281E-10 tot_iter=     114 conv_iter=      46 cpu clock= 1.76E+00
 tran: time= 8.4281E-10 tot_iter=     118 conv_iter=      48 cpu clock= 1.76E+00
 tran: time= 9.4281E-10 tot_iter=     122 conv_iter=      50 cpu clock= 1.76E+00
 tran: time= 1.0000E-09 tot_iter=     126 conv_iter=      52 cpu clock= 1.76E+00
 sweep: tran tran0    end,  cpu clock=  1.76E+00 memory=    180 kb
>info:         ***** hspice job concluded
 init: begin read circuit files,  cpu clock=  1.77E+00
       option search   = /synopsys/HSPICE/hspice/parts/ad
       option search   = /synopsys/HSPICE/hspice/parts/ad
       option search   = /synopsys/HSPICE/hspice/parts/behave
       option search   = /synopsys/HSPICE/hspice/parts/bjt
       option search   = /synopsys/HSPICE/hspice/parts/burr_brn
       option search   = /synopsys/HSPICE/hspice/parts/comlinear
       option search   = /synopsys/HSPICE/hspice/parts/dio
       option search   = /synopsys/HSPICE/hspice/parts/fet
       option search   = /synopsys/HSPICE/hspice/parts/lin_tech
       option search   = /synopsys/HSPICE/hspice/parts/pci
       option search   = /synopsys/HSPICE/hspice/parts/signet
       option search   = /synopsys/HSPICE/hspice/parts/ti
       option search   = /synopsys/HSPICE/hspice/parts/tline
       option search   = /synopsys/HSPICE/hspice/parts/xilinx
       option runlvl
       option measfi   =     1.00
       option measfo   =     3.00
       option measdg   =     8.00
       option ingold   =     0.00
       option post
 init: end read circuit files,  cpu clock=  1.78E+00 memory=    156 kb
 init: begin check errors,  cpu clock=  1.78E+00
 init: end check errors,  cpu clock=  1.78E+00 memory=    156 kb
 init: begin setup matrix, pivot=     0 cpu clock=  1.78E+00
       establish matrix -- done,  cpu clock=  1.78E+00 memory=    161 kb
       re-order matrix -- done,  cpu clock=  1.78E+00 memory=    161 kb
 init: end setup matrix,  cpu clock=  1.78E+00 memory=    180 kb
 dcop: begin dcop,  cpu clock=  1.78E+00
 dcop: end dcop,  cpu clock=  1.79E+00 memory=    180 kb  tot_iter=       4
 output: calcdelay.tr24
 sweep: tran tran0    begin, stop_t=  1.00E-09 #sweeps=2001 cpu clock=  1.79E+00
 tran: time= 1.4821E-10 tot_iter=      12 conv_iter=       6 cpu clock= 1.79E+00
 tran: time= 2.4821E-10 tot_iter=      16 conv_iter=       8 cpu clock= 1.79E+00
 tran: time= 3.4821E-10 tot_iter=      20 conv_iter=      10 cpu clock= 1.79E+00
 tran: time= 4.2500E-10 tot_iter=      24 conv_iter=      12 cpu clock= 1.79E+00
 tran: time= 5.0000E-10 tot_iter=      59 conv_iter=      23 cpu clock= 1.79E+00
 tran: time= 6.2903E-10 tot_iter=     111 conv_iter=      43 cpu clock= 1.80E+00
 tran: time= 7.2903E-10 tot_iter=     115 conv_iter=      45 cpu clock= 1.80E+00
 tran: time= 8.2903E-10 tot_iter=     119 conv_iter=      47 cpu clock= 1.80E+00
 tran: time= 9.2903E-10 tot_iter=     123 conv_iter=      49 cpu clock= 1.80E+00
 tran: time= 1.0000E-09 tot_iter=     127 conv_iter=      51 cpu clock= 1.80E+00
 sweep: tran tran0    end,  cpu clock=  1.80E+00 memory=    180 kb
>info:         ***** hspice job concluded
 init: begin read circuit files,  cpu clock=  1.81E+00
       option search   = /synopsys/HSPICE/hspice/parts/ad
       option search   = /synopsys/HSPICE/hspice/parts/ad
       option search   = /synopsys/HSPICE/hspice/parts/behave
       option search   = /synopsys/HSPICE/hspice/parts/bjt
       option search   = /synopsys/HSPICE/hspice/parts/burr_brn
       option search   = /synopsys/HSPICE/hspice/parts/comlinear
       option search   = /synopsys/HSPICE/hspice/parts/dio
       option search   = /synopsys/HSPICE/hspice/parts/fet
       option search   = /synopsys/HSPICE/hspice/parts/lin_tech
       option search   = /synopsys/HSPICE/hspice/parts/pci
       option search   = /synopsys/HSPICE/hspice/parts/signet
       option search   = /synopsys/HSPICE/hspice/parts/ti
       option search   = /synopsys/HSPICE/hspice/parts/tline
       option search   = /synopsys/HSPICE/hspice/parts/xilinx
       option runlvl
       option measfi   =     1.00
       option measfo   =     3.00
       option measdg   =     8.00
       option ingold   =     0.00
       option post
 init: end read circuit files,  cpu clock=  1.81E+00 memory=    156 kb
 init: begin check errors,  cpu clock=  1.81E+00
 init: end check errors,  cpu clock=  1.82E+00 memory=    156 kb
 init: begin setup matrix, pivot=     0 cpu clock=  1.82E+00
       establish matrix -- done,  cpu clock=  1.82E+00 memory=    161 kb
       re-order matrix -- done,  cpu clock=  1.82E+00 memory=    161 kb
 init: end setup matrix,  cpu clock=  1.82E+00 memory=    180 kb
 dcop: begin dcop,  cpu clock=  1.82E+00
 dcop: end dcop,  cpu clock=  1.83E+00 memory=    180 kb  tot_iter=       4
 output: calcdelay.tr25
 sweep: tran tran0    begin, stop_t=  1.00E-09 #sweeps=2001 cpu clock=  1.83E+00
 tran: time= 1.4821E-10 tot_iter=      12 conv_iter=       6 cpu clock= 1.83E+00
 tran: time= 2.4821E-10 tot_iter=      16 conv_iter=       8 cpu clock= 1.83E+00
 tran: time= 3.4821E-10 tot_iter=      20 conv_iter=      10 cpu clock= 1.83E+00
 tran: time= 4.2500E-10 tot_iter=      24 conv_iter=      12 cpu clock= 1.83E+00
 tran: time= 5.0000E-10 tot_iter=      54 conv_iter=      22 cpu clock= 1.83E+00
 tran: time= 6.1728E-10 tot_iter=     103 conv_iter=      41 cpu clock= 1.83E+00
 tran: time= 7.0816E-10 tot_iter=     107 conv_iter=      43 cpu clock= 1.83E+00
 tran: time= 8.0816E-10 tot_iter=     111 conv_iter=      45 cpu clock= 1.83E+00
 tran: time= 9.0816E-10 tot_iter=     115 conv_iter=      47 cpu clock= 1.83E+00
 tran: time= 1.0000E-09 tot_iter=     119 conv_iter=      49 cpu clock= 1.83E+00
 sweep: tran tran0    end,  cpu clock=  1.83E+00 memory=    180 kb
>info:         ***** hspice job concluded
 init: begin read circuit files,  cpu clock=  1.85E+00
       option search   = /synopsys/HSPICE/hspice/parts/ad
       option search   = /synopsys/HSPICE/hspice/parts/ad
       option search   = /synopsys/HSPICE/hspice/parts/behave
       option search   = /synopsys/HSPICE/hspice/parts/bjt
       option search   = /synopsys/HSPICE/hspice/parts/burr_brn
       option search   = /synopsys/HSPICE/hspice/parts/comlinear
       option search   = /synopsys/HSPICE/hspice/parts/dio
       option search   = /synopsys/HSPICE/hspice/parts/fet
       option search   = /synopsys/HSPICE/hspice/parts/lin_tech
       option search   = /synopsys/HSPICE/hspice/parts/pci
       option search   = /synopsys/HSPICE/hspice/parts/signet
       option search   = /synopsys/HSPICE/hspice/parts/ti
       option search   = /synopsys/HSPICE/hspice/parts/tline
       option search   = /synopsys/HSPICE/hspice/parts/xilinx
       option runlvl
       option measfi   =     1.00
       option measfo   =     3.00
       option measdg   =     8.00
       option ingold   =     0.00
       option post
 init: end read circuit files,  cpu clock=  1.85E+00 memory=    156 kb
 init: begin check errors,  cpu clock=  1.85E+00
 init: end check errors,  cpu clock=  1.85E+00 memory=    156 kb
 init: begin setup matrix, pivot=     0 cpu clock=  1.85E+00
       establish matrix -- done,  cpu clock=  1.85E+00 memory=    161 kb
       re-order matrix -- done,  cpu clock=  1.85E+00 memory=    161 kb
 init: end setup matrix,  cpu clock=  1.86E+00 memory=    180 kb
 dcop: begin dcop,  cpu clock=  1.86E+00
 dcop: end dcop,  cpu clock=  1.86E+00 memory=    180 kb  tot_iter=       4
 output: calcdelay.tr26
 sweep: tran tran0    begin, stop_t=  1.00E-09 #sweeps=2001 cpu clock=  1.86E+00
 tran: time= 1.4821E-10 tot_iter=      12 conv_iter=       6 cpu clock= 1.86E+00
 tran: time= 2.4821E-10 tot_iter=      16 conv_iter=       8 cpu clock= 1.86E+00
 tran: time= 3.4821E-10 tot_iter=      20 conv_iter=      10 cpu clock= 1.86E+00
 tran: time= 4.2500E-10 tot_iter=      24 conv_iter=      12 cpu clock= 1.86E+00
 tran: time= 5.0000E-10 tot_iter=      54 conv_iter=      22 cpu clock= 1.87E+00
 tran: time= 6.2299E-10 tot_iter=     103 conv_iter=      41 cpu clock= 1.87E+00
 tran: time= 7.1195E-10 tot_iter=     107 conv_iter=      43 cpu clock= 1.87E+00
 tran: time= 8.1195E-10 tot_iter=     111 conv_iter=      45 cpu clock= 1.87E+00
 tran: time= 9.1195E-10 tot_iter=     115 conv_iter=      47 cpu clock= 1.87E+00
 tran: time= 1.0000E-09 tot_iter=     119 conv_iter=      49 cpu clock= 1.87E+00
 sweep: tran tran0    end,  cpu clock=  1.87E+00 memory=    180 kb
>info:         ***** hspice job concluded
 init: begin read circuit files,  cpu clock=  1.88E+00
       option search   = /synopsys/HSPICE/hspice/parts/ad
       option search   = /synopsys/HSPICE/hspice/parts/ad
       option search   = /synopsys/HSPICE/hspice/parts/behave
       option search   = /synopsys/HSPICE/hspice/parts/bjt
       option search   = /synopsys/HSPICE/hspice/parts/burr_brn
       option search   = /synopsys/HSPICE/hspice/parts/comlinear
       option search   = /synopsys/HSPICE/hspice/parts/dio
       option search   = /synopsys/HSPICE/hspice/parts/fet
       option search   = /synopsys/HSPICE/hspice/parts/lin_tech
       option search   = /synopsys/HSPICE/hspice/parts/pci
       option search   = /synopsys/HSPICE/hspice/parts/signet
       option search   = /synopsys/HSPICE/hspice/parts/ti
       option search   = /synopsys/HSPICE/hspice/parts/tline
       option search   = /synopsys/HSPICE/hspice/parts/xilinx
       option runlvl
       option measfi   =     1.00
       option measfo   =     3.00
       option measdg   =     8.00
       option ingold   =     0.00
       option post
 init: end read circuit files,  cpu clock=  1.88E+00 memory=    156 kb
 init: begin check errors,  cpu clock=  1.88E+00
 init: end check errors,  cpu clock=  1.89E+00 memory=    156 kb
 init: begin setup matrix, pivot=     0 cpu clock=  1.89E+00
       establish matrix -- done,  cpu clock=  1.89E+00 memory=    161 kb
       re-order matrix -- done,  cpu clock=  1.89E+00 memory=    161 kb
 init: end setup matrix,  cpu clock=  1.89E+00 memory=    180 kb
 dcop: begin dcop,  cpu clock=  1.89E+00
 dcop: end dcop,  cpu clock=  1.90E+00 memory=    180 kb  tot_iter=       4
 output: calcdelay.tr27
 sweep: tran tran0    begin, stop_t=  1.00E-09 #sweeps=2001 cpu clock=  1.90E+00
 tran: time= 1.4821E-10 tot_iter=      12 conv_iter=       6 cpu clock= 1.90E+00
 tran: time= 2.4821E-10 tot_iter=      16 conv_iter=       8 cpu clock= 1.90E+00
 tran: time= 3.4821E-10 tot_iter=      20 conv_iter=      10 cpu clock= 1.90E+00
 tran: time= 4.2500E-10 tot_iter=      24 conv_iter=      12 cpu clock= 1.90E+00
 tran: time= 5.0000E-10 tot_iter=      51 conv_iter=      21 cpu clock= 1.90E+00
 tran: time= 6.0186E-10 tot_iter=     102 conv_iter=      40 cpu clock= 1.90E+00
 tran: time= 7.2661E-10 tot_iter=     108 conv_iter=      43 cpu clock= 1.90E+00
 tran: time= 8.2661E-10 tot_iter=     112 conv_iter=      45 cpu clock= 1.90E+00
 tran: time= 9.2661E-10 tot_iter=     116 conv_iter=      47 cpu clock= 1.90E+00
 tran: time= 1.0000E-09 tot_iter=     120 conv_iter=      49 cpu clock= 1.90E+00
 sweep: tran tran0    end,  cpu clock=  1.90E+00 memory=    180 kb
>info:         ***** hspice job concluded
 init: begin read circuit files,  cpu clock=  1.92E+00
       option search   = /synopsys/HSPICE/hspice/parts/ad
       option search   = /synopsys/HSPICE/hspice/parts/ad
       option search   = /synopsys/HSPICE/hspice/parts/behave
       option search   = /synopsys/HSPICE/hspice/parts/bjt
       option search   = /synopsys/HSPICE/hspice/parts/burr_brn
       option search   = /synopsys/HSPICE/hspice/parts/comlinear
       option search   = /synopsys/HSPICE/hspice/parts/dio
       option search   = /synopsys/HSPICE/hspice/parts/fet
       option search   = /synopsys/HSPICE/hspice/parts/lin_tech
       option search   = /synopsys/HSPICE/hspice/parts/pci
       option search   = /synopsys/HSPICE/hspice/parts/signet
       option search   = /synopsys/HSPICE/hspice/parts/ti
       option search   = /synopsys/HSPICE/hspice/parts/tline
       option search   = /synopsys/HSPICE/hspice/parts/xilinx
       option runlvl
       option measfi   =     1.00
       option measfo   =     3.00
       option measdg   =     8.00
       option ingold   =     0.00
       option post
 init: end read circuit files,  cpu clock=  1.92E+00 memory=    156 kb
 init: begin check errors,  cpu clock=  1.92E+00
 init: end check errors,  cpu clock=  1.92E+00 memory=    156 kb
 init: begin setup matrix, pivot=     0 cpu clock=  1.92E+00
       establish matrix -- done,  cpu clock=  1.92E+00 memory=    161 kb
       re-order matrix -- done,  cpu clock=  1.92E+00 memory=    161 kb
 init: end setup matrix,  cpu clock=  1.93E+00 memory=    180 kb
 dcop: begin dcop,  cpu clock=  1.93E+00
 dcop: end dcop,  cpu clock=  1.93E+00 memory=    180 kb  tot_iter=       4
 output: calcdelay.tr28
 sweep: tran tran0    begin, stop_t=  1.00E-09 #sweeps=2001 cpu clock=  1.93E+00
 tran: time= 1.4821E-10 tot_iter=      12 conv_iter=       6 cpu clock= 1.93E+00
 tran: time= 2.4821E-10 tot_iter=      16 conv_iter=       8 cpu clock= 1.93E+00
 tran: time= 3.4821E-10 tot_iter=      20 conv_iter=      10 cpu clock= 1.93E+00
 tran: time= 4.2500E-10 tot_iter=      24 conv_iter=      12 cpu clock= 1.93E+00
 tran: time= 5.0000E-10 tot_iter=      49 conv_iter=      20 cpu clock= 1.94E+00
 tran: time= 6.0861E-10 tot_iter=     100 conv_iter=      40 cpu clock= 1.94E+00
 tran: time= 7.3695E-10 tot_iter=     106 conv_iter=      43 cpu clock= 1.94E+00
 tran: time= 8.3695E-10 tot_iter=     110 conv_iter=      45 cpu clock= 1.94E+00
 tran: time= 9.3695E-10 tot_iter=     114 conv_iter=      47 cpu clock= 1.94E+00
 tran: time= 1.0000E-09 tot_iter=     118 conv_iter=      49 cpu clock= 1.94E+00
 sweep: tran tran0    end,  cpu clock=  1.94E+00 memory=    180 kb
>info:         ***** hspice job concluded
 init: begin read circuit files,  cpu clock=  1.95E+00
       option search   = /synopsys/HSPICE/hspice/parts/ad
       option search   = /synopsys/HSPICE/hspice/parts/ad
       option search   = /synopsys/HSPICE/hspice/parts/behave
       option search   = /synopsys/HSPICE/hspice/parts/bjt
       option search   = /synopsys/HSPICE/hspice/parts/burr_brn
       option search   = /synopsys/HSPICE/hspice/parts/comlinear
       option search   = /synopsys/HSPICE/hspice/parts/dio
       option search   = /synopsys/HSPICE/hspice/parts/fet
       option search   = /synopsys/HSPICE/hspice/parts/lin_tech
       option search   = /synopsys/HSPICE/hspice/parts/pci
       option search   = /synopsys/HSPICE/hspice/parts/signet
       option search   = /synopsys/HSPICE/hspice/parts/ti
       option search   = /synopsys/HSPICE/hspice/parts/tline
       option search   = /synopsys/HSPICE/hspice/parts/xilinx
       option runlvl
       option measfi   =     1.00
       option measfo   =     3.00
       option measdg   =     8.00
       option ingold   =     0.00
       option post
 init: end read circuit files,  cpu clock=  1.95E+00 memory=    164 kb
 init: begin check errors,  cpu clock=  1.95E+00
 init: end check errors,  cpu clock=  1.96E+00 memory=    164 kb
 init: begin setup matrix, pivot=     0 cpu clock=  1.96E+00
       establish matrix -- done,  cpu clock=  1.96E+00 memory=    169 kb
       re-order matrix -- done,  cpu clock=  1.96E+00 memory=    169 kb
 init: end setup matrix,  cpu clock=  1.97E+00 memory=    188 kb
 dcop: begin dcop,  cpu clock=  1.97E+00
 dcop: end dcop,  cpu clock=  1.97E+00 memory=    188 kb  tot_iter=       4
 output: calcdelay.tr29
 sweep: tran tran0    begin, stop_t=  1.00E-09 #sweeps=2001 cpu clock=  1.97E+00
[...]
 init: end setup matrix,  cpu clock=  3.54E+00 memory=    204 kb
 dcop: begin dcop,  cpu clock=  3.54E+00
 dcop: end dcop,  cpu clock=  3.55E+00 memory=    204 kb  tot_iter=       4
 output: calcdelay.tr73
 sweep: tran tran0    begin, stop_t=  1.00E-09 #sweeps=2001 cpu clock=  3.55E+00
 tran: time= 1.4821E-10 tot_iter=      12 conv_iter=       6 cpu clock= 3.55E+00
 tran: time= 2.4821E-10 tot_iter=      16 conv_iter=       8 cpu clock= 3.55E+00
 tran: time= 3.4821E-10 tot_iter=      20 conv_iter=      10 cpu clock= 3.55E+00
 tran: time= 4.2500E-10 tot_iter=      24 conv_iter=      12 cpu clock= 3.55E+00
 tran: time= 5.0000E-10 tot_iter=      34 conv_iter=      17 cpu clock= 3.55E+00
 tran: time= 6.1635E-10 tot_iter=      68 conv_iter=      30 cpu clock= 3.55E+00
 tran: time= 7.0262E-10 tot_iter=      96 conv_iter=      39 cpu clock= 3.55E+00
 tran: time= 8.0611E-10 tot_iter=     120 conv_iter=      49 cpu clock= 3.55E+00
 tran: time= 9.3428E-10 tot_iter=     126 conv_iter=      52 cpu clock= 3.55E+00
 tran: time= 1.0000E-09 tot_iter=     130 conv_iter=      54 cpu clock= 3.55E+00
 sweep: tran tran0    end,  cpu clock=  3.55E+00 memory=    205 kb
>info:         ***** hspice job concluded
 init: begin read circuit files,  cpu clock=  3.57E+00
       option search   = /synopsys/HSPICE/hspice/parts/ad
       option search   = /synopsys/HSPICE/hspice/parts/ad
       option search   = /synopsys/HSPICE/hspice/parts/behave
       option search   = /synopsys/HSPICE/hspice/parts/bjt
       option search   = /synopsys/HSPICE/hspice/parts/burr_brn
       option search   = /synopsys/HSPICE/hspice/parts/comlinear
       option search   = /synopsys/HSPICE/hspice/parts/dio
       option search   = /synopsys/HSPICE/hspice/parts/fet
       option search   = /synopsys/HSPICE/hspice/parts/lin_tech
       option search   = /synopsys/HSPICE/hspice/parts/pci
       option search   = /synopsys/HSPICE/hspice/parts/signet
       option search   = /synopsys/HSPICE/hspice/parts/ti
       option search   = /synopsys/HSPICE/hspice/parts/tline
       option search   = /synopsys/HSPICE/hspice/parts/xilinx
       option runlvl
       option measfi   =     1.00
       option measfo   =     3.00
       option measdg   =     8.00
       option ingold   =     0.00
       option post
 init: end read circuit files,  cpu clock=  3.57E+00 memory=    180 kb
 init: begin check errors,  cpu clock=  3.57E+00
 init: end check errors,  cpu clock=  3.57E+00 memory=    181 kb
 init: begin setup matrix, pivot=     0 cpu clock=  3.57E+00
       establish matrix -- done,  cpu clock=  3.57E+00 memory=    185 kb
       re-order matrix -- done,  cpu clock=  3.57E+00 memory=    185 kb
 init: end setup matrix,  cpu clock=  3.58E+00 memory=    204 kb
 dcop: begin dcop,  cpu clock=  3.58E+00
 dcop: end dcop,  cpu clock=  3.58E+00 memory=    204 kb  tot_iter=       4
 output: calcdelay.tr74
 sweep: tran tran0    begin, stop_t=  1.00E-09 #sweeps=2001 cpu clock=  3.58E+00
 tran: time= 1.4821E-10 tot_iter=      12 conv_iter=       6 cpu clock= 3.58E+00
 tran: time= 2.4821E-10 tot_iter=      16 conv_iter=       8 cpu clock= 3.58E+00
 tran: time= 3.4821E-10 tot_iter=      20 conv_iter=      10 cpu clock= 3.58E+00
 tran: time= 4.2500E-10 tot_iter=      24 conv_iter=      12 cpu clock= 3.58E+00
 tran: time= 5.0000E-10 tot_iter=      34 conv_iter=      17 cpu clock= 3.58E+00
 tran: time= 6.2241E-10 tot_iter=      68 conv_iter=      30 cpu clock= 3.58E+00
 tran: time= 7.0269E-10 tot_iter=      93 conv_iter=      37 cpu clock= 3.58E+00
 tran: time= 8.0214E-10 tot_iter=     121 conv_iter=      48 cpu clock= 3.58E+00
 tran: time= 9.2277E-10 tot_iter=     127 conv_iter=      51 cpu clock= 3.58E+00
 tran: time= 1.0000E-09 tot_iter=     131 conv_iter=      53 cpu clock= 3.58E+00
 sweep: tran tran0    end,  cpu clock=  3.58E+00 memory=    205 kb
>info:         ***** hspice job concluded
 init: begin read circuit files,  cpu clock=  3.60E+00
       option search   = /synopsys/HSPICE/hspice/parts/ad
       option search   = /synopsys/HSPICE/hspice/parts/ad
       option search   = /synopsys/HSPICE/hspice/parts/behave
       option search   = /synopsys/HSPICE/hspice/parts/bjt
       option search   = /synopsys/HSPICE/hspice/parts/burr_brn
       option search   = /synopsys/HSPICE/hspice/parts/comlinear
       option search   = /synopsys/HSPICE/hspice/parts/dio
       option search   = /synopsys/HSPICE/hspice/parts/fet
       option search   = /synopsys/HSPICE/hspice/parts/lin_tech
       option search   = /synopsys/HSPICE/hspice/parts/pci
       option search   = /synopsys/HSPICE/hspice/parts/signet
       option search   = /synopsys/HSPICE/hspice/parts/ti
       option search   = /synopsys/HSPICE/hspice/parts/tline
       option search   = /synopsys/HSPICE/hspice/parts/xilinx
       option runlvl
       option measfi   =     1.00
       option measfo   =     3.00
       option measdg   =     8.00
       option ingold   =     0.00
       option post
 init: end read circuit files,  cpu clock=  3.60E+00 memory=    180 kb
 init: begin check errors,  cpu clock=  3.60E+00
 init: end check errors,  cpu clock=  3.60E+00 memory=    181 kb
 init: begin setup matrix, pivot=     0 cpu clock=  3.60E+00
       establish matrix -- done,  cpu clock=  3.60E+00 memory=    185 kb
       re-order matrix -- done,  cpu clock=  3.60E+00 memory=    185 kb
 init: end setup matrix,  cpu clock=  3.61E+00 memory=    204 kb
 dcop: begin dcop,  cpu clock=  3.61E+00
 dcop: end dcop,  cpu clock=  3.61E+00 memory=    204 kb  tot_iter=       4
 output: calcdelay.tr75
 sweep: tran tran0    begin, stop_t=  1.00E-09 #sweeps=2001 cpu clock=  3.61E+00
 tran: time= 1.4821E-10 tot_iter=      12 conv_iter=       6 cpu clock= 3.61E+00
 tran: time= 2.4821E-10 tot_iter=      16 conv_iter=       8 cpu clock= 3.61E+00
 tran: time= 3.4821E-10 tot_iter=      20 conv_iter=      10 cpu clock= 3.61E+00
 tran: time= 4.2500E-10 tot_iter=      24 conv_iter=      12 cpu clock= 3.61E+00
 tran: time= 5.0000E-10 tot_iter=      34 conv_iter=      17 cpu clock= 3.61E+00
 tran: time= 6.3233E-10 tot_iter=      68 conv_iter=      30 cpu clock= 3.61E+00
 tran: time= 7.0208E-10 tot_iter=      90 conv_iter=      37 cpu clock= 3.62E+00
 tran: time= 8.1695E-10 tot_iter=     117 conv_iter=      48 cpu clock= 3.62E+00
 tran: time= 9.4902E-10 tot_iter=     123 conv_iter=      51 cpu clock= 3.62E+00
 tran: time= 1.0000E-09 tot_iter=     125 conv_iter=      52 cpu clock= 3.62E+00
 sweep: tran tran0    end,  cpu clock=  3.62E+00 memory=    205 kb
>info:         ***** hspice job concluded
 init: begin read circuit files,  cpu clock=  3.63E+00
       option search   = /synopsys/HSPICE/hspice/parts/ad
       option search   = /synopsys/HSPICE/hspice/parts/ad
       option search   = /synopsys/HSPICE/hspice/parts/behave
       option search   = /synopsys/HSPICE/hspice/parts/bjt
       option search   = /synopsys/HSPICE/hspice/parts/burr_brn
       option search   = /synopsys/HSPICE/hspice/parts/comlinear
       option search   = /synopsys/HSPICE/hspice/parts/dio
       option search   = /synopsys/HSPICE/hspice/parts/fet
       option search   = /synopsys/HSPICE/hspice/parts/lin_tech
       option search   = /synopsys/HSPICE/hspice/parts/pci
       option search   = /synopsys/HSPICE/hspice/parts/signet
       option search   = /synopsys/HSPICE/hspice/parts/ti
       option search   = /synopsys/HSPICE/hspice/parts/tline
       option search   = /synopsys/HSPICE/hspice/parts/xilinx
       option runlvl
       option measfi   =     1.00
       option measfo   =     3.00
       option measdg   =     8.00
       option ingold   =     0.00
       option post
 init: end read circuit files,  cpu clock=  3.63E+00 memory=    180 kb
 init: begin check errors,  cpu clock=  3.63E+00
 init: end check errors,  cpu clock=  3.64E+00 memory=    181 kb
 init: begin setup matrix, pivot=     0 cpu clock=  3.64E+00
       establish matrix -- done,  cpu clock=  3.64E+00 memory=    185 kb
       re-order matrix -- done,  cpu clock=  3.64E+00 memory=    185 kb
 init: end setup matrix,  cpu clock=  3.64E+00 memory=    204 kb
 dcop: begin dcop,  cpu clock=  3.64E+00
 dcop: end dcop,  cpu clock=  3.64E+00 memory=    204 kb  tot_iter=       4
 output: calcdelay.tr76
 sweep: tran tran0    begin, stop_t=  1.00E-09 #sweeps=2001 cpu clock=  3.64E+00
 tran: time= 1.4821E-10 tot_iter=      12 conv_iter=       6 cpu clock= 3.64E+00
 tran: time= 2.4821E-10 tot_iter=      16 conv_iter=       8 cpu clock= 3.64E+00
 tran: time= 3.4821E-10 tot_iter=      20 conv_iter=      10 cpu clock= 3.64E+00
 tran: time= 4.2500E-10 tot_iter=      24 conv_iter=      12 cpu clock= 3.64E+00
 tran: time= 5.0000E-10 tot_iter=      34 conv_iter=      17 cpu clock= 3.64E+00
 tran: time= 6.2273E-10 tot_iter=      67 conv_iter=      30 cpu clock= 3.65E+00
 tran: time= 7.0466E-10 tot_iter=      93 conv_iter=      38 cpu clock= 3.65E+00
 tran: time= 8.0650E-10 tot_iter=     116 conv_iter=      47 cpu clock= 3.65E+00
 tran: time= 9.2746E-10 tot_iter=     122 conv_iter=      50 cpu clock= 3.65E+00
 tran: time= 1.0000E-09 tot_iter=     126 conv_iter=      52 cpu clock= 3.65E+00
 sweep: tran tran0    end,  cpu clock=  3.65E+00 memory=    205 kb
>info:         ***** hspice job concluded
 init: begin read circuit files,  cpu clock=  3.66E+00
       option search   = /synopsys/HSPICE/hspice/parts/ad
       option search   = /synopsys/HSPICE/hspice/parts/ad
       option search   = /synopsys/HSPICE/hspice/parts/behave
       option search   = /synopsys/HSPICE/hspice/parts/bjt
       option search   = /synopsys/HSPICE/hspice/parts/burr_brn
       option search   = /synopsys/HSPICE/hspice/parts/comlinear
       option search   = /synopsys/HSPICE/hspice/parts/dio
       option search   = /synopsys/HSPICE/hspice/parts/fet
       option search   = /synopsys/HSPICE/hspice/parts/lin_tech
       option search   = /synopsys/HSPICE/hspice/parts/pci
       option search   = /synopsys/HSPICE/hspice/parts/signet
       option search   = /synopsys/HSPICE/hspice/parts/ti
       option search   = /synopsys/HSPICE/hspice/parts/tline
       option search   = /synopsys/HSPICE/hspice/parts/xilinx
       option runlvl
       option measfi   =     1.00
       option measfo   =     3.00
       option measdg   =     8.00
       option ingold   =     0.00
       option post
 init: end read circuit files,  cpu clock=  3.66E+00 memory=    180 kb
 init: begin check errors,  cpu clock=  3.66E+00
 init: end check errors,  cpu clock=  3.67E+00 memory=    181 kb
 init: begin setup matrix, pivot=     0 cpu clock=  3.67E+00
       establish matrix -- done,  cpu clock=  3.67E+00 memory=    185 kb
       re-order matrix -- done,  cpu clock=  3.67E+00 memory=    185 kb
 init: end setup matrix,  cpu clock=  3.67E+00 memory=    204 kb
 dcop: begin dcop,  cpu clock=  3.67E+00
 dcop: end dcop,  cpu clock=  3.67E+00 memory=    204 kb  tot_iter=       4
 output: calcdelay.tr77
 sweep: tran tran0    begin, stop_t=  1.00E-09 #sweeps=2001 cpu clock=  3.68E+00
 tran: time= 1.4821E-10 tot_iter=      12 conv_iter=       6 cpu clock= 3.68E+00
 tran: time= 2.4821E-10 tot_iter=      16 conv_iter=       8 cpu clock= 3.68E+00
 tran: time= 3.4821E-10 tot_iter=      20 conv_iter=      10 cpu clock= 3.68E+00
 tran: time= 4.2500E-10 tot_iter=      24 conv_iter=      12 cpu clock= 3.68E+00
 tran: time= 5.0000E-10 tot_iter=      34 conv_iter=      17 cpu clock= 3.68E+00
 tran: time= 6.1656E-10 tot_iter=      67 conv_iter=      30 cpu clock= 3.68E+00
 tran: time= 7.0111E-10 tot_iter=      91 conv_iter=      37 cpu clock= 3.68E+00
 tran: time= 8.0151E-10 tot_iter=     118 conv_iter=      48 cpu clock= 3.68E+00
 tran: time= 9.4258E-10 tot_iter=     126 conv_iter=      52 cpu clock= 3.68E+00
 tran: time= 1.0000E-09 tot_iter=     130 conv_iter=      54 cpu clock= 3.68E+00
 sweep: tran tran0    end,  cpu clock=  3.68E+00 memory=    205 kb
>info:         ***** hspice job concluded
 init: begin read circuit files,  cpu clock=  3.70E+00
       option search   = /synopsys/HSPICE/hspice/parts/ad
       option search   = /synopsys/HSPICE/hspice/parts/ad
       option search   = /synopsys/HSPICE/hspice/parts/behave
       option search   = /synopsys/HSPICE/hspice/parts/bjt
       option search   = /synopsys/HSPICE/hspice/parts/burr_brn
       option search   = /synopsys/HSPICE/hspice/parts/comlinear
       option search   = /synopsys/HSPICE/hspice/parts/dio
       option search   = /synopsys/HSPICE/hspice/parts/fet
       option search   = /synopsys/HSPICE/hspice/parts/lin_tech
       option search   = /synopsys/HSPICE/hspice/parts/pci
       option search   = /synopsys/HSPICE/hspice/parts/signet
       option search   = /synopsys/HSPICE/hspice/parts/ti
       option search   = /synopsys/HSPICE/hspice/parts/tline
       option search   = /synopsys/HSPICE/hspice/parts/xilinx
       option runlvl
       option measfi   =     1.00
       option measfo   =     3.00
       option measdg   =     8.00
       option ingold   =     0.00
       option post
 init: end read circuit files,  cpu clock=  3.70E+00 memory=    180 kb
 init: begin check errors,  cpu clock=  3.70E+00
 init: end check errors,  cpu clock=  3.70E+00 memory=    181 kb
 init: begin setup matrix, pivot=     0 cpu clock=  3.70E+00
       establish matrix -- done,  cpu clock=  3.70E+00 memory=    185 kb
       re-order matrix -- done,  cpu clock=  3.70E+00 memory=    185 kb
 init: end setup matrix,  cpu clock=  3.70E+00 memory=    204 kb
 dcop: begin dcop,  cpu clock=  3.70E+00
 dcop: end dcop,  cpu clock=  3.71E+00 memory=    204 kb  tot_iter=       4
 output: calcdelay.tr78
 sweep: tran tran0    begin, stop_t=  1.00E-09 #sweeps=2001 cpu clock=  3.71E+00
 tran: time= 1.4821E-10 tot_iter=      12 conv_iter=       6 cpu clock= 3.71E+00
 tran: time= 2.4821E-10 tot_iter=      16 conv_iter=       8 cpu clock= 3.71E+00
 tran: time= 3.4821E-10 tot_iter=      20 conv_iter=      10 cpu clock= 3.71E+00
 tran: time= 4.2500E-10 tot_iter=      24 conv_iter=      12 cpu clock= 3.71E+00
 tran: time= 5.0000E-10 tot_iter=      34 conv_iter=      17 cpu clock= 3.71E+00
 tran: time= 6.1406E-10 tot_iter=      67 conv_iter=      30 cpu clock= 3.71E+00
 tran: time= 7.0425E-10 tot_iter=      92 conv_iter=      37 cpu clock= 3.71E+00
 tran: time= 8.0672E-10 tot_iter=     113 conv_iter=      45 cpu clock= 3.71E+00
 tran: time= 9.0615E-10 tot_iter=     125 conv_iter=      51 cpu clock= 3.71E+00
 tran: time= 1.0000E-09 tot_iter=     129 conv_iter=      53 cpu clock= 3.71E+00
 sweep: tran tran0    end,  cpu clock=  3.71E+00 memory=    205 kb
>info:         ***** hspice job concluded
 init: begin read circuit files,  cpu clock=  3.73E+00
       option search   = /synopsys/HSPICE/hspice/parts/ad
       option search   = /synopsys/HSPICE/hspice/parts/ad
       option search   = /synopsys/HSPICE/hspice/parts/behave
       option search   = /synopsys/HSPICE/hspice/parts/bjt
       option search   = /synopsys/HSPICE/hspice/parts/burr_brn
       option search   = /synopsys/HSPICE/hspice/parts/comlinear
       option search   = /synopsys/HSPICE/hspice/parts/dio
       option search   = /synopsys/HSPICE/hspice/parts/fet
       option search   = /synopsys/HSPICE/hspice/parts/lin_tech
       option search   = /synopsys/HSPICE/hspice/parts/pci
       option search   = /synopsys/HSPICE/hspice/parts/signet
       option search   = /synopsys/HSPICE/hspice/parts/ti
       option search   = /synopsys/HSPICE/hspice/parts/tline
       option search   = /synopsys/HSPICE/hspice/parts/xilinx
       option runlvl
       option measfi   =     1.00
       option measfo   =     3.00
       option measdg   =     8.00
       option ingold   =     0.00
       option post
 init: end read circuit files,  cpu clock=  3.73E+00 memory=    180 kb
 init: begin check errors,  cpu clock=  3.73E+00
 init: end check errors,  cpu clock=  3.73E+00 memory=    181 kb
 init: begin setup matrix, pivot=     0 cpu clock=  3.73E+00
       establish matrix -- done,  cpu clock=  3.73E+00 memory=    185 kb
       re-order matrix -- done,  cpu clock=  3.73E+00 memory=    185 kb
 init: end setup matrix,  cpu clock=  3.74E+00 memory=    204 kb
 dcop: begin dcop,  cpu clock=  3.74E+00
 dcop: end dcop,  cpu clock=  3.74E+00 memory=    204 kb  tot_iter=       4
 output: calcdelay.tr79
 sweep: tran tran0    begin, stop_t=  1.00E-09 #sweeps=2001 cpu clock=  3.74E+00
 tran: time= 1.4821E-10 tot_iter=      12 conv_iter=       6 cpu clock= 3.74E+00
 tran: time= 2.4821E-10 tot_iter=      16 conv_iter=       8 cpu clock= 3.74E+00
 tran: time= 3.4821E-10 tot_iter=      20 conv_iter=      10 cpu clock= 3.74E+00
 tran: time= 4.2500E-10 tot_iter=      24 conv_iter=      12 cpu clock= 3.74E+00
 tran: time= 5.0000E-10 tot_iter=      34 conv_iter=      17 cpu clock= 3.74E+00
 tran: time= 6.1265E-10 tot_iter=      67 conv_iter=      30 cpu clock= 3.74E+00
 tran: time= 7.0380E-10 tot_iter=      89 conv_iter=      37 cpu clock= 3.74E+00
 tran: time= 8.1033E-10 tot_iter=     113 conv_iter=      46 cpu clock= 3.74E+00
 tran: time= 9.1985E-10 tot_iter=     125 conv_iter=      52 cpu clock= 3.74E+00
 tran: time= 1.0000E-09 tot_iter=     129 conv_iter=      54 cpu clock= 3.74E+00
 sweep: tran tran0    end,  cpu clock=  3.74E+00 memory=    205 kb
>info:         ***** hspice job concluded
 init: begin read circuit files,  cpu clock=  3.76E+00
       option search   = /synopsys/HSPICE/hspice/parts/ad
       option search   = /synopsys/HSPICE/hspice/parts/ad
       option search   = /synopsys/HSPICE/hspice/parts/behave
       option search   = /synopsys/HSPICE/hspice/parts/bjt
       option search   = /synopsys/HSPICE/hspice/parts/burr_brn
       option search   = /synopsys/HSPICE/hspice/parts/comlinear
       option search   = /synopsys/HSPICE/hspice/parts/dio
       option search   = /synopsys/HSPICE/hspice/parts/fet
       option search   = /synopsys/HSPICE/hspice/parts/lin_tech
       option search   = /synopsys/HSPICE/hspice/parts/pci
       option search   = /synopsys/HSPICE/hspice/parts/signet
       option search   = /synopsys/HSPICE/hspice/parts/ti
       option search   = /synopsys/HSPICE/hspice/parts/tline
       option search   = /synopsys/HSPICE/hspice/parts/xilinx
       option runlvl
       option measfi   =     1.00
       option measfo   =     3.00
       option measdg   =     8.00
       option ingold   =     0.00
       option post
 init: end read circuit files,  cpu clock=  3.76E+00 memory=    180 kb
 init: begin check errors,  cpu clock=  3.76E+00
 init: end check errors,  cpu clock=  3.77E+00 memory=    181 kb
 init: begin setup matrix, pivot=     0 cpu clock=  3.77E+00
       establish matrix -- done,  cpu clock=  3.77E+00 memory=    185 kb
       re-order matrix -- done,  cpu clock=  3.77E+00 memory=    185 kb
 init: end setup matrix,  cpu clock=  3.77E+00 memory=    204 kb
 dcop: begin dcop,  cpu clock=  3.77E+00
 dcop: end dcop,  cpu clock=  3.77E+00 memory=    204 kb  tot_iter=       4
 output: calcdelay.tr80
 sweep: tran tran0    begin, stop_t=  1.00E-09 #sweeps=2001 cpu clock=  3.77E+00
 tran: time= 1.4821E-10 tot_iter=      12 conv_iter=       6 cpu clock= 3.77E+00
 tran: time= 2.4821E-10 tot_iter=      16 conv_iter=       8 cpu clock= 3.77E+00
 tran: time= 3.4821E-10 tot_iter=      20 conv_iter=      10 cpu clock= 3.77E+00
 tran: time= 4.2500E-10 tot_iter=      24 conv_iter=      12 cpu clock= 3.77E+00
 tran: time= 5.0000E-10 tot_iter=      34 conv_iter=      17 cpu clock= 3.77E+00
 tran: time= 6.1201E-10 tot_iter=      67 conv_iter=      30 cpu clock= 3.77E+00
 tran: time= 7.0501E-10 tot_iter=      87 conv_iter=      36 cpu clock= 3.77E+00
 tran: time= 8.0000E-10 tot_iter=     109 conv_iter=      44 cpu clock= 3.78E+00
 tran: time= 9.2527E-10 tot_iter=     123 conv_iter=      51 cpu clock= 3.78E+00
 tran: time= 1.0000E-09 tot_iter=     127 conv_iter=      53 cpu clock= 3.78E+00
 sweep: tran tran0    end,  cpu clock=  3.78E+00 memory=    205 kb
>info:         ***** hspice job concluded
 lic: Release hspice token(s)
