$DATA1 SOURCE='HSPICE' VERSION='F-2011.09 32-BIT'
$OPTION MEASFORM=1
.TITLE '$effective resistance calculation'
drain mres gval temper alter#
0.    0.    1.2000   25.0000 1
5.000e-02  5.000e+26    1.2000   25.0000 1
0.1000  1.000e+27    1.2000   25.0000 1
0.1500  1.500e+27    1.2000   25.0000 1
0.2000  2.000e+27    1.2000   25.0000 1
0.2500  2.500e+27    1.2000   25.0000 1
0.3000  3.000e+27    1.2000   25.0000 1
0.3500  3.500e+27    1.2000   25.0000 1
0.4000  4.000e+27    1.2000   25.0000 1
0.4500  4.500e+27    1.2000   25.0000 1
0.5000  5.000e+27    1.2000   25.0000 1
0.5500  5.500e+27    1.2000   25.0000 1
0.6000  6.000e+27    1.2000   25.0000 1
0.6500  6.500e+27    1.2000   25.0000 1
0.7000  7.000e+27    1.2000   25.0000 1
0.7500  7.500e+27    1.2000   25.0000 1
0.8000  8.000e+27    1.2000   25.0000 1
0.8500  8.500e+27    1.2000   25.0000 1
0.9000  9.000e+27    1.2000   25.0000 1
0.9500  9.500e+27    1.2000   25.0000 1
1.0000  1.000e+28    1.2000   25.0000 1
1.0500  1.050e+28    1.2000   25.0000 1
1.1000  1.100e+28    1.2000   25.0000 1
1.1500  1.150e+28    1.2000   25.0000 1
1.2000  1.200e+28    1.2000   25.0000 1
