Using: /usr/bin/time -p /synopsys/HSPICE/hspice/linux/hspice Latchtest.sp
 ****** HSPICE -- F-2011.09 32-BIT (Sep  5 2011) linux ******                   
  Copyright (C) 2011 Synopsys, Inc. All Rights Reserved.                        
  Unpublished-rights reserved under US copyright laws.
  This program is protected by law and is subject to the
  terms and conditions of the license agreement from Synopsys.
  Use of this program is your acceptance to be bound by the
  license agreement. HSPICE is the trademark of Synopsys, Inc.
  Input File: Latchtest.sp                                                      
  Command line options: Latchtest.sp
 lic: No 'setenv LM_LICENSE_FILE' in current environment' 
 lic:  
 lic: FLEXlm: v10.8 
 lic: USER:   watkins              HOSTNAME: engr-e132-d17 
 lic: HOSTID: 0022192aa9c6         PID:      4879 
 lic: Using FLEXlm license file: 
 lic: 28000@131.230.191.194 
 lic: Checkout 1 hspice 
 lic: License/Maintenance for hspice will expire on 29-nov-2016/2015.06 
 lic: 1(in_use)/50(total) FLOATING license(s) on SERVER 131.230.191.194 
 lic:   
 Init: read install configuration file: /synopsys/HSPICE/hspice/meta.cfg
  **warning** option measfile is disabled due to no .alter in the netlist
1****** HSPICE -- F-2011.09 32-BIT (Sep  5 2011) linux ******                   
 ******  
 

  ******  circuit name directory
 circuit number to circuit name directory
   number circuitname                     definition         multiplier
        0 main circuit
        1 xpg1.                           pgate              1.00 
        2 xpg4.                           pgate              1.00 
        3 xpg2.                           pgate              1.00 
1****** HSPICE -- F-2011.09 32-BIT (Sep  5 2011) linux ******                   
 ******  
 

  ******  mos   model parameters tnom=  25.000 temp=  25.000 *****
 Model Name: cmosn  
 BSIM4 Model (Level 54)
    MOBMOD = 0
    BINUNIT = 1
    PARAMCHK = 1
    CAPMOD = 2
    DIOMOD = 1
    RDSMOD = 0
    TRNQSMOD = 0
    ACNQSMOD = 0
    RBODYMOD = 1
    RGATEMOD = 1
    PERMOD = 1
    GEOMOD = 1
    RGEOMOD = 0
    FNOIMOD = 1
    TNOIMOD = 0
    IGCMOD = 1
    IGBMOD = 1
    STIMOD = 0
    VERSION =      4 
    TOXREF = 1.15e-09 
    TOXE = 1.15e-09 
    TOXP =  9e-10 
    TOXM = 1.15e-09 
    DTOX = 2.5e-10 
    EPSROX =    3.9 
    CDSC =      0 
    CDSCB =      0 
    CDSCD =      0 
    CIT =      0 
    NFACTOR =  2.508 
    XJ =  1e-08 
    VSAT = 2.1e+05 
    A0 =      1 
    AGS =      0 
    A1 =      0 
    A2 =      1 
    AT = 3.3e+04 
    KETA =   0.04 
    NSUB =  6e+16 
    NDEP = 4.12e+18 
    NSD =  2e+20 
    NGATE =  1e+23 
    GAMMA1 =      0 
    GAMMA2 =      0 
    VBX =      0 
    VBM =     -3 
    XT = 1.55e-07 
    K1 =    0.4 
    KT1 =  -0.11 
    KT1L =      0 
    KT2 =  0.022 
    K2 =      0 
    K3 =      0 
    K3B =      0 
    LPE0 =      0 
    LPEB =      0 
    DVTP0 =  1e-11 
    DVTP1 =    0.1 
    W0 = 2.5e-06 
    DVT0 =      1 
    DVT1 =      2 
    DVT2 =      0 
    DVT0W =      0 
    DVT1W =      0 
    DVT2W =      0 
    DROUT =    0.5 
    DSUB =    0.1 
    VTH0 =  0.494 
    EU =   1.67 
    UA =  6e-10 
    UA1 = 4.31e-09 
    UB = 1.2e-18 
    UB1 = 7.61e-18 
    UC =      0 
    UC1 = -5.6e-11 
    U0 =   0.05 
    UTE =   -1.5 
    VOFF =  -0.13 
    VOFFL =      0 
    MINV =   0.05 
    FPROUT =    0.2 
    PDITS =   0.01 
    PDITSD =   0.23 
    PDITSL = 2.3e+06 
    DELTA =   0.01 
    RDSW =    150 
    RDSWMIN =      0 
    RDWMIN =      0 
    RSWMIN =      0 
    RDW =     75 
    RSW =     75 
    PRWG =      0 
    PRWB =      0 
    PRT =      0 
    ETA0 = 0.0048 
    ETAB =      0 
    PCLM =   0.02 
    PDIBLC1 =  0.001 
    PDIBLC2 =  0.001 
    PDIBLCB = -0.005 
    PSCBE1 = 8.14e+08 
    PSCBE2 =  1e-07 
    PVAG =  1e-20 
    WR =      1 
    DWG =      0 
    DWB =      0 
    XW =      0 
    XWREF =      0 
    XL = -1.4e-08 
    XLREF = -1.4e-08 
    B0 =      0 
    B1 =      0 
    ALPHA0 =  0.074 
    ALPHA1 =  0.005 
    AGIDL = 0.0002 
    BGIDL = 2.1e+09 
    CGIDL = 0.0002 
    PHIN =      0 
    EGIDL =    0.8 
    AIGC = 0.02001 
    BIGC = 0.002743 
    CIGC =  0.002 
    AIGSD = 0.02001 
    BIGSD = 0.002743 
    CIGSD =  0.002 
    AIGBACC =  0.012 
    BIGBACC = 0.0028 
    CIGBACC =  0.002 
    AIGBINV =  0.014 
    BIGBINV =  0.004 
    CIGBINV =  0.004 
    NIGC =      1 
    NIGBINV =      3 
    NIGBACC =      1 
    NTOX =      1 
    EIGBINV =    1.1 
    PIGCD =      1 
    POXEDGE =      1 
    XRCRG1 =     12 
    TNOIA =    1.5 
    TNOIB =    3.5 
    NTNOI =      1 
    XRCRG2 =      5 
    BETA0 =     30 
    IJTHDFWD =   0.01 
    IJTHSFWD =   0.01 
    IJTHDREV =  0.001 
    IJTHSREV =  0.001 
    XJBVD =      1 
    XJBVS =      1 
    BVD =     10 
    BVS =     10 
    VFB =  -0.55 
    GBMIN =  1e-10 
    RBDB =     15 
    RBPB =      5 
    RBSB =     15 
    RBPS =     15 
    RBPD =     15 
    CGSL = 2.653e-10 
    CGDL = 2.653e-10 
    CKAPPAS =   0.03 
    CKAPPAD =   0.03 
    CF = 1.287e-10 
    CLC =  1e-07 
    CLE =    0.6 
    DWC =  5e-09 
    DLC = 2.7e-09 
    DLCIG = 2.7e-09 
    DWJ =      0 
    VFBCV =     -1 
    ACDE =      1 
    MOIN =     15 
    NOFF =    0.9 
    VOFFCV =   0.02 
    DMCG =      0 
    DMCI =      0 
    DMDG =      0 
    DMCGT =      0 
    XGW =      0 
    XGL =      0 
    RSHG =    0.4 
    NGCON =      1 
    TCJ =  0.001 
    TPB =  0.005 
    TCJSW =  0.001 
    TPBSW =  0.005 
    TCJSWG =  0.001 
    TPBSWG =  0.005 
    SK0 =      0 
    SK1 =      0 
    SK2 =      0 
    SL =  2e-06 
    SW =  2e-06 
    K =      0 
    TNOM =  300.1 
    CGSO = 8.5e-11 
    CGDO = 8.5e-11 
    CGBO = 2.56e-11 
    XPART =      0 
    RSH =      5 
    JSS = 0.0001 
    JSWS =  1e-11 
    JSWGS =  1e-10 
    PBS =      1 
    MJS =    0.5 
    PBSWS =      1 
    MJSWS =   0.33 
    CJS = 0.0005 
    CJSWS =  5e-10 
    NJS =      1 
    PBSWGS =      1 
    MJSWGS =   0.33 
    CJSWGS =  3e-10 
    XTIS =      3 
    JSD = 0.0001 
    JSWD =  1e-11 
    JSWGD =  1e-10 
    PBD =      1 
    MJD =    0.5 
    PBSWD =      1 
    MJSWD =   0.33 
    CJD = 0.0005 
    CJSWD =  5e-10 
    NJD =      1 
    PBSWGD =      1 
    MJSWGD =   0.33 
    CJSWGD =  5e-10 
    XTID =      3 
    LMLT =      1 
    WMLT =      1 
    LINT = 2.7e-09 
    LL =      0 
    LLC =      0 
    LLN =      1 
    LW =      0 
    LWC =      0 
    LWN =      1 
    LWL =      0 
    LWLC =      0 
    LMIN =      0 
    LMAX =      1 
    WINT =  5e-09 
    WL =      0 
    WLC =      0 
    WLN =      1 
    WW =      0 
    WWC =      0 
    WWN =      1 
    WWL =      0 
    WWLC =      0 
    WMIN =      0 
    WMAX =      1 
    NOIA = 6.25e+41 
    NOIB = 3.125e+26 
    NOIC = 8.75e+09 
    EM = 4.1e+07 
    EF =      1 
    AF =      1 
    KF =      0 
    TRS =      0 
    TRD =      0 
 Model Name: cmosp  
 BSIM4 Model (Level 54)
    MOBMOD = 0
    BINUNIT = 1
    PARAMCHK = 1
    CAPMOD = 2
    DIOMOD = 1
    RDSMOD = 0
    TRNQSMOD = 0
    ACNQSMOD = 0
    RBODYMOD = 1
    RGATEMOD = 1
    PERMOD = 1
    GEOMOD = 1
    RGEOMOD = 0
    FNOIMOD = 1
    TNOIMOD = 0
    IGCMOD = 1
    IGBMOD = 1
    STIMOD = 0
    VERSION =      4 
    TOXREF = 1.2e-09 
    TOXE = 1.2e-09 
    TOXP =  9e-10 
    TOXM = 1.2e-09 
    DTOX =  3e-10 
    EPSROX =    3.9 
    CDSC =      0 
    CDSCB =      0 
    CDSCD =      0 
    CIT =      0 
    NFACTOR =    2.1 
    XJ =  1e-08 
    VSAT = 1.8e+05 
    A0 =      1 
    AGS =  1e-20 
    A1 =      0 
    A2 =      1 
    AT = 3.3e+04 
    KETA = -0.047 
    NSUB =  6e+16 
    NDEP = 3.07e+18 
    NSD =  2e+20 
    NGATE =  1e+23 
    GAMMA1 =      0 
    GAMMA2 =      0 
    VBX =      0 
    VBM =     -3 
    XT = 1.55e-07 
    K1 =    0.4 
    KT1 =  -0.11 
    KT1L =      0 
    KT2 =  0.022 
    K2 =  -0.01 
    K3 =      0 
    K3B =      0 
    LPE0 =      0 
    LPEB =      0 
    DVTP0 =  1e-11 
    DVTP1 =   0.05 
    W0 = 2.5e-06 
    DVT0 =      1 
    DVT1 =      2 
    DVT2 = -0.032 
    DVT0W =      0 
    DVT1W =      0 
    DVT2W =      0 
    DROUT =   0.56 
    DSUB =    0.1 
    VTH0 = -0.4916 
    EU =      1 
    UA =  2e-09 
    UA1 = 4.31e-09 
    UB =  5e-19 
    UB1 = 7.61e-18 
    UC =      0 
    UC1 = -5.6e-11 
    U0 =  0.014 
    UTE =   -1.5 
    VOFF = -0.126 
    VOFFL =      0 
    MINV =   0.05 
    FPROUT =    0.2 
    PDITS =   0.08 
    PDITSD =   0.23 
    PDITSL = 2.3e+06 
    DELTA =   0.01 
    RDSW =    150 
    RDSWMIN =      0 
    RDWMIN =      0 
    RSWMIN =      0 
    RDW =     75 
    RSW =     75 
    PRWG =      0 
    PRWB =      0 
    PRT =      0 
    ETA0 = 0.0048 
    ETAB =      0 
    PCLM =   0.12 
    PDIBLC1 =  0.001 
    PDIBLC2 =  0.001 
    PDIBLCB = 3.4e-08 
    PSCBE1 = 8.14e+08 
    PSCBE2 = 9.58e-07 
    PVAG =  1e-20 
    WR =      1 
    DWG =      0 
    DWB =      0 
    XW =      0 
    XWREF =      0 
    XL = -1.4e-08 
    XLREF = -1.4e-08 
    B0 =      0 
    B1 =      0 
    ALPHA0 =  0.074 
    ALPHA1 =  0.005 
    AGIDL = 0.0002 
    BGIDL = 2.1e+09 
    CGIDL = 0.0002 
    PHIN =      0 
    EGIDL =    0.8 
    AIGC = 0.02001 
    BIGC = 0.002743 
    CIGC =  0.002 
    AIGSD = 0.02001 
    BIGSD = 0.002743 
    CIGSD =  0.002 
    AIGBACC =  0.012 
    BIGBACC = 0.0028 
    CIGBACC =  0.002 
    AIGBINV =  0.014 
    BIGBINV =  0.004 
    CIGBINV =  0.004 
    NIGC =      1 
    NIGBINV =      3 
    NIGBACC =      1 
    NTOX =      1 
    EIGBINV =    1.1 
    PIGCD =      1 
    POXEDGE =      1 
    XRCRG1 =     12 
    TNOIA =    1.5 
    TNOIB =    3.5 
    NTNOI =      1 
    XRCRG2 =      5 
    BETA0 =     30 
    IJTHDFWD =   0.01 
    IJTHSFWD =   0.01 
    IJTHDREV =  0.001 
    IJTHSREV =  0.001 
    XJBVD =      1 
    XJBVS =      1 
    BVD =     10 
    BVS =     10 
    VFB =   0.55 
    GBMIN =  1e-10 
    RBDB =     15 
    RBPB =      5 
    RBSB =     15 
    RBPS =     15 
    RBPD =     15 
    CGSL = 2.653e-10 
    CGDL = 2.653e-10 
    CKAPPAS =   0.03 
    CKAPPAD =   0.03 
    CF = 1.278e-10 
    CLC =  1e-07 
    CLE =    0.6 
    DWC =  5e-09 
    DLC = 2.7e-09 
    DLCIG = 2.7e-09 
    DWJ =      0 
    VFBCV =     -1 
    ACDE =      1 
    MOIN =     15 
    NOFF =    0.9 
    VOFFCV =   0.02 
    DMCG =      0 
    DMCI =      0 
    DMDG =      0 
    DMCGT =      0 
    XGW =      0 
    XGL =      0 
    RSHG =    0.4 
    NGCON =      1 
    TCJ =  0.001 
    TPB =  0.005 
    TCJSW =  0.001 
    TPBSW =  0.005 
    TCJSWG =  0.001 
    TPBSWG =  0.005 
    SK0 =      0 
    SK1 =      0 
    SK2 =      0 
    SL =  2e-06 
    SW =  2e-06 
    K =      0 
    TNOM =  300.1 
    CGSO = 8.5e-11 
    CGDO = 8.5e-11 
    CGBO = 2.56e-11 
    XPART =      0 
    RSH =      5 
    JSS = 0.0001 
    JSWS =  1e-11 
    JSWGS =  1e-10 
    PBS =      1 
    MJS =    0.5 
    PBSWS =      1 
    MJSWS =   0.33 
    CJS = 0.0005 
    CJSWS =  5e-10 
    NJS =      1 
    PBSWGS =      1 
    MJSWGS =   0.33 
    CJSWGS =  3e-10 
    XTIS =      3 
    JSD = 0.0001 
    JSWD =  1e-11 
    JSWGD =  1e-10 
    PBD =      1 
    MJD =    0.5 
    PBSWD =      1 
    MJSWD =   0.33 
    CJD = 0.0005 
    CJSWD =  5e-10 
    NJD =      1 
    PBSWGD =      1 
    MJSWGD =   0.33 
    CJSWGD =  5e-10 
    XTID =      3 
    LMLT =      1 
    WMLT =      1 
    LINT = 2.7e-09 
    LL =      0 
    LLC =      0 
    LLN =      1 
    LW =      0 
    LWC =      0 
    LWN =      1 
    LWL =      0 
    LWLC =      0 
    LMIN =      0 
    LMAX =      1 
    WINT =  5e-09 
    WL =      0 
    WLC =      0 
    WLN =      1 
    WW =      0 
    WWC =      0 
    WWN =      1 
    WWL =      0 
    WWLC =      0 
    WMIN =      0 
    WMAX =      1 
    NOIA = 6.188e+40 
    NOIB = 1.5e+25 
    NOIC = 8.75e+09 
    EM = 4.1e+07 
    EF =      1 
    AF =      1 
    KF =      0 
    TRS =      0 
    TRD =      0 
  **info** (Latchtest.sp:59) DC voltage reset to initial transient source value              in source        0:vdata1              new dc=  0.1050D+01
 **warning**(cmosn:mn1a)Warning:  Acde = 0.263957 may be too small in BSIM4 model with w=4e-08 l=3.2e-08.
  

 **warning** the following singular supplies were terminated to 1 meg resistor 
   supply       node1            node2
  vinb                    0:b                defined in subckt 0                     0:0                defined in subckt 0               
      
 **info** set option symb=1 internally to help for convergence.
 *****************************************************************
 ******  option summary
 ******
 runlvl  = 3         bypass  = 2         
  Opening plot unit= 15
 file=Latchtest.pa0                                                            

 **info** dc convergence successful
 you can increase the efficiency of the
 operating point calculation by setting dcon= 1
 in the .option statement
1****** HSPICE -- F-2011.09 32-BIT (Sep  5 2011) linux ******                   
 ******  
 

  ******  operating point information tnom=  25.000 temp=  25.000 *****
 ***** operating point status is voltage   simulation time is     0.     
    node    =voltage      node    =voltage      node    =voltage

 +0:b       =   0.2500  0:ckh     =   0.      0:ckl     =   1.0500 
 +0:co1     = 1.336e-04 0:co2     = 1.327e-04 0:co3     = 1.151e-06
 +0:d       =   1.0500  0:n1      =   1.0500  0:n2      =   1.0500 
 +0:n3      =   1.0500  0:n4      =   1.0500  0:n5      =   1.0500 
 +0:nm1a    = 8.929e-05 0:nm1b    = 4.476e-05 0:nm3a    = 8.871e-05
 +0:nm3b    = 4.447e-05 0:nm4     =   0.1221  0:nm5a    = 6.931e-07
 +0:nm7     =   0.1221  0:nm8     =   0.1222  0:nm9a    = 8.922e-05
 +0:nm9b    = 4.473e-05 0:out     = 1.335e-04 0:pm1a    =   0.9284 
 +0:pm1b    =   0.1659  0:pm3a    =   1.0197  0:pm3b    =   0.8793 
 +0:pm4     =   1.0500  0:pm5b    =   0.9031  0:pm7     =   1.0500 
 +0:pm8     =   1.0500  0:pm9a    =   1.0196  0:pm9b    =   0.8793 
 +0:vdd     =   1.0500 


 maximum nodal capacitance=   3.160E-15         on node     0:vdd             

    nodal  capacitance table 

    node    =    cap      node    =    cap      node    =    cap

 +0:b       =   0.      0:ckh     = 1.269e-16 0:ckl     = 1.914e-16
 +0:co1     = 4.395e-16 0:co2     = 4.366e-16 0:co3     = 3.350e-16
 +0:d       = 2.976e-16 0:n1      = 3.262e-16 0:n2      = 3.051e-16
 +0:n3      = 3.031e-16 0:n4      = 3.276e-16 0:n5      = 3.236e-16
 +0:nm1a    = 9.617e-17 0:nm1b    = 9.617e-17 0:nm3a    = 9.617e-17
 +0:nm3b    = 9.617e-17 0:nm4     = 7.008e-17 0:nm5a    = 9.617e-17
 +0:nm7     = 7.008e-17 0:nm8     = 7.007e-17 0:nm9a    = 9.617e-17
 +0:nm9b    = 9.617e-17 0:out     = 4.279e-16 0:pm1a    = 1.468e-16
 +0:pm1b    = 1.319e-16 0:pm3a    = 1.547e-16 0:pm3b    = 1.430e-16
 +0:pm4     = 2.055e-16 0:pm5b    = 1.448e-16 0:pm7     = 2.055e-16
 +0:pm8     = 2.055e-16 0:pm9a    = 1.547e-16 0:pm9b    = 1.430e-16
 +0:vdd     = 3.160e-15

 
 ******  
 

  ******  transient analysis tnom=  25.000 temp=  25.000 *****

   *** data name = setsrce  1st sweep ***

x

        time      curabs   
                           
    0.          7.271e-09  
  5.0000e-13    2.137e-04  
  1.0000e-12    2.164e-04  
  1.5000e-12    1.726e-04  
  2.0000e-12    1.329e-04  
  2.5000e-12    1.029e-04  
  3.0000e-12    7.944e-05  
  3.5000e-12    5.970e-05  
  4.0000e-12    4.212e-05  
  4.5000e-12    2.650e-05  
  5.0000e-12    1.356e-05  
  5.5000e-12    2.806e-06  
  6.0000e-12    5.993e-06  
  6.5000e-12    1.310e-05  
  7.0000e-12    1.924e-05  
  7.5000e-12    2.468e-05  
  8.0000e-12    2.885e-05  
  8.5000e-12    3.135e-05  
  9.0000e-12    3.210e-05  
  9.5000e-12    3.191e-05  
  1.0000e-11    3.077e-05  
  1.0500e-11    2.968e-05  
  1.1000e-11    2.884e-05  
  1.1500e-11    2.863e-05  
  1.2000e-11    2.898e-05  
  1.2500e-11    2.975e-05  
  1.3000e-11    3.080e-05  
  1.3500e-11    3.188e-05  
  1.4000e-11    3.306e-05  
  1.4500e-11    3.402e-05  
  1.5000e-11    3.449e-05  
  1.5500e-11    3.442e-05  
  1.6000e-11    3.389e-05  
  1.6500e-11    3.303e-05  
  1.7000e-11    3.197e-05  
  1.7500e-11    3.078e-05  
  1.8000e-11    2.959e-05  
  1.8500e-11    2.843e-05  
  1.9000e-11    2.738e-05  
  1.9500e-11    2.659e-05  
  2.0000e-11    2.621e-05  
  2.0500e-11    2.638e-05  
  2.1000e-11    2.710e-05  
  2.1500e-11    2.831e-05  
  2.2000e-11    2.973e-05  
  2.2500e-11    3.155e-05  
  2.3000e-11    3.300e-05  
  2.3500e-11    3.466e-05  
  2.4000e-11    3.604e-05  
  2.4500e-11    3.720e-05  
  2.5000e-11    3.818e-05  
  2.5500e-11    3.892e-05  
  2.6000e-11    3.946e-05  
  2.6500e-11    3.981e-05  
  2.7000e-11    4.000e-05  
  2.7500e-11    4.004e-05  
  2.8000e-11    3.988e-05  
  2.8500e-11    3.935e-05  
  2.9000e-11    3.837e-05  
  2.9500e-11    3.684e-05  
  3.0000e-11    3.477e-05  
  3.0500e-11    3.239e-05  
  3.1000e-11    2.996e-05  
  3.1500e-11    2.766e-05  
  3.2000e-11    2.566e-05  
  3.2500e-11    2.407e-05  
  3.3000e-11    2.293e-05  
  3.3500e-11    2.228e-05  
  3.4000e-11    2.206e-05  
  3.4500e-11    2.223e-05  
  3.5000e-11    2.250e-05  
  3.5500e-11    2.268e-05  
  3.6000e-11    2.274e-05  
  3.6500e-11    2.264e-05  
  3.7000e-11    2.237e-05  
  3.7500e-11    2.190e-05  
  3.8000e-11    2.124e-05  
  3.8500e-11    2.043e-05  
  3.9000e-11    1.949e-05  
  3.9500e-11    1.844e-05  
  4.0000e-11    1.732e-05  
  4.0500e-11    1.619e-05  
  4.1000e-11    1.504e-05  
  4.1500e-11    1.390e-05  
  4.2000e-11    1.284e-05  
  4.2500e-11    1.182e-05  
  4.3000e-11    1.084e-05  
  4.3500e-11    9.962e-06  
  4.4000e-11    9.135e-06  
  4.4500e-11    8.385e-06  
  4.5000e-11    7.697e-06  
  4.5500e-11    7.057e-06  
  4.6000e-11    6.503e-06  
  4.6500e-11    5.942e-06  
  4.7000e-11    5.458e-06  
  4.7500e-11    5.016e-06  
  4.8000e-11    4.648e-06  
  4.8500e-11    4.252e-06  
  4.9000e-11    3.909e-06  
  4.9500e-11    3.589e-06  
  5.0000e-11    3.318e-06  
  5.0500e-11    3.067e-06  
  5.1000e-11    2.834e-06  
  5.1500e-11    2.650e-06  
  5.2000e-11    2.437e-06  
  5.2500e-11    2.296e-06  
  5.3000e-11    2.134e-06  
  5.3500e-11    1.979e-06  
  5.4000e-11    1.836e-06  
  5.4500e-11    1.720e-06  
  5.5000e-11    1.611e-06  
  5.5500e-11    1.498e-06  
  5.6000e-11    1.428e-06  
  5.6500e-11    1.326e-06  
  5.7000e-11    1.245e-06  
  5.7500e-11    1.188e-06  
  5.8000e-11    1.128e-06  
  5.8500e-11    1.062e-06  
  5.9000e-11    1.003e-06  
  5.9500e-11    9.502e-07  
  6.0000e-11    8.776e-07  
  6.0500e-11    8.581e-07  
  6.1000e-11    8.210e-07  
  6.1500e-11    7.896e-07  
  6.2000e-11    7.318e-07  
  6.2500e-11    7.105e-07  
  6.3000e-11    7.214e-07  
  6.3500e-11    6.727e-07  
  6.4000e-11    6.419e-07  
  6.4500e-11    6.185e-07  
  6.5000e-11    6.055e-07  
  6.5500e-11    5.809e-07  
  6.6000e-11    5.347e-07  
  6.6500e-11    5.573e-07  
  6.7000e-11    5.261e-07  
  6.7500e-11    4.962e-07  
  6.8000e-11    4.953e-07  
  6.8500e-11    4.624e-07  
  6.9000e-11    4.595e-07  
  6.9500e-11    4.554e-07  
  7.0000e-11    4.447e-07  
  7.0500e-11    4.354e-07  
  7.1000e-11    4.258e-07  
  7.1500e-11    4.143e-07  
  7.2000e-11    4.004e-07  
  7.2500e-11    3.992e-07  
  7.3000e-11    3.785e-07  
  7.3500e-11    3.795e-07  
  7.4000e-11    3.836e-07  
  7.4500e-11    3.628e-07  
  7.5000e-11    3.647e-07  
  7.5500e-11    3.721e-07  
  7.6000e-11    3.631e-07  
  7.6500e-11    3.392e-07  
  7.7000e-11    3.357e-07  
  7.7500e-11    3.365e-07  
  7.8000e-11    3.285e-07  
  7.8500e-11    3.246e-07  
  7.9000e-11    3.179e-07  
  7.9500e-11    3.183e-07  
  8.0000e-11    3.137e-07  
  8.0500e-11    3.118e-07  
  8.1000e-11    3.083e-07  
  8.1500e-11    2.991e-07  
  8.2000e-11    2.967e-07  
  8.2500e-11    2.924e-07  
  8.3000e-11    2.926e-07  
  8.3500e-11    2.813e-07  
  8.4000e-11    2.910e-07  
  8.4500e-11    2.788e-07  
  8.5000e-11    2.811e-07  
  8.5500e-11    2.849e-07  
  8.6000e-11    2.713e-07  
  8.6500e-11    2.623e-07  
  8.7000e-11    2.652e-07  
  8.7500e-11    2.620e-07  
  8.8000e-11    2.541e-07  
  8.8500e-11    2.573e-07  
  8.9000e-11    2.551e-07  
  8.9500e-11    2.492e-07  
  9.0000e-11    2.504e-07  
  9.0500e-11    2.547e-07  
  9.1000e-11    2.422e-07  
  9.1500e-11    2.516e-07  
  9.2000e-11    2.442e-07  
  9.2500e-11    2.407e-07  
  9.3000e-11    2.421e-07  
  9.3500e-11    2.404e-07  
  9.4000e-11    2.318e-07  
  9.4500e-11    2.348e-07  
  9.5000e-11    2.297e-07  
  9.5500e-11    2.346e-07  
  9.6000e-11    2.248e-07  
  9.6500e-11    2.311e-07  
  9.7000e-11    2.227e-07  
  9.7500e-11    2.258e-07  
  9.8000e-11    2.181e-07  
  9.8500e-11    2.118e-07  
  9.9000e-11    2.208e-07  
  9.9500e-11    2.154e-07  
  1.0000e-10    2.099e-07  
  1.0050e-10    2.126e-07  
  1.0100e-10    2.016e-07  
  1.0150e-10    2.081e-07  
  1.0200e-10    2.096e-07  
  1.0250e-10    2.082e-07  
  1.0300e-10    2.075e-07  
  1.0350e-10    2.009e-07  
  1.0400e-10    2.046e-07  
  1.0450e-10    1.845e-07  
  1.0500e-10    1.922e-07  
  1.0550e-10    2.027e-07  
  1.0600e-10    1.879e-07  
  1.0650e-10    2.013e-07  
  1.0700e-10    1.958e-07  
  1.0750e-10    1.865e-07  
  1.0800e-10    1.848e-07  
  1.0850e-10    1.924e-07  
  1.0900e-10    1.728e-07  
  1.0950e-10    1.881e-07  
  1.1000e-10    1.808e-07  
  1.1050e-10    1.803e-07  
  1.1100e-10    1.736e-07  
  1.1150e-10    1.884e-07  
  1.1200e-10    1.735e-07  
  1.1250e-10    1.874e-07  
  1.1300e-10    1.781e-07  
  1.1350e-10    1.775e-07  
  1.1400e-10    1.740e-07  
  1.1450e-10    1.824e-07  
  1.1500e-10    1.723e-07  
  1.1550e-10    1.742e-07  
  1.1600e-10    1.754e-07  
  1.1650e-10    1.709e-07  
  1.1700e-10    1.719e-07  
  1.1750e-10    1.708e-07  
  1.1800e-10    1.756e-07  
  1.1850e-10    1.566e-07  
  1.1900e-10    1.778e-07  
  1.1950e-10    1.506e-07  
  1.2000e-10    1.785e-07  
  1.2050e-10    1.465e-07  
  1.2100e-10    1.685e-07  
  1.2150e-10    1.553e-07  
  1.2200e-10    1.604e-07  
  1.2250e-10    1.461e-07  
  1.2300e-10    1.684e-07  
  1.2350e-10    1.445e-07  
  1.2400e-10    1.707e-07  
  1.2450e-10    1.463e-07  
  1.2500e-10    1.567e-07  
  1.2550e-10    1.497e-07  
  1.2600e-10    1.639e-07  
  1.2650e-10    1.450e-07  
  1.2700e-10    1.573e-07  
  1.2750e-10    1.452e-07  
  1.2800e-10    1.499e-07  
  1.2850e-10    1.382e-07  
  1.2900e-10    1.595e-07  
  1.2950e-10    1.348e-07  
  1.3000e-10    1.518e-07  
  1.3050e-10    1.412e-07  
  1.3100e-10    1.492e-07  
  1.3150e-10    1.394e-07  
  1.3200e-10    1.483e-07  
  1.3250e-10    1.365e-07  
  1.3300e-10    1.509e-07  
  1.3350e-10    1.360e-07  
  1.3400e-10    1.485e-07  
  1.3450e-10    1.227e-07  
  1.3500e-10    1.598e-07  
  1.3550e-10    1.315e-07  
  1.3600e-10    1.504e-07  
  1.3650e-10    1.299e-07  
  1.3700e-10    1.540e-07  
  1.3750e-10    1.328e-07  
  1.3800e-10    1.525e-07  
  1.3850e-10    1.209e-07  
  1.3900e-10    1.442e-07  
  1.3950e-10    1.228e-07  
  1.4000e-10    1.395e-07  
  1.4050e-10    1.250e-07  
  1.4100e-10    1.395e-07  
  1.4150e-10    1.202e-07  
  1.4200e-10    1.410e-07  
  1.4250e-10    1.213e-07  
  1.4300e-10    1.395e-07  
  1.4350e-10    1.228e-07  
  1.4400e-10    1.406e-07  
  1.4450e-10    1.197e-07  
  1.4500e-10    1.340e-07  
  1.4550e-10    1.191e-07  
  1.4600e-10    1.332e-07  
  1.4650e-10    1.195e-07  
  1.4700e-10    1.340e-07  
  1.4750e-10    1.170e-07  
  1.4800e-10    1.258e-07  
  1.4850e-10    1.251e-07  
  1.4900e-10    1.258e-07  
  1.4950e-10    1.266e-07  
  1.5000e-10    1.299e-07  
  1.5050e-10    1.192e-07  
  1.5100e-10    1.246e-07  
  1.5150e-10    1.293e-07  
  1.5200e-10    1.326e-07  
  1.5250e-10    1.250e-07  
  1.5300e-10    1.268e-07  
  1.5350e-10    1.247e-07  
  1.5400e-10    1.265e-07  
  1.5450e-10    1.255e-07  
  1.5500e-10    1.295e-07  
  1.5550e-10    1.160e-07  
  1.5600e-10    1.231e-07  
  1.5650e-10    1.218e-07  
  1.5700e-10    1.231e-07  
  1.5750e-10    1.169e-07  
  1.5800e-10    1.218e-07  
  1.5850e-10    1.232e-07  
  1.5900e-10    1.126e-07  
  1.5950e-10    1.178e-07  
  1.6000e-10    1.169e-07  
  1.6050e-10    1.038e-07  
  1.6100e-10    1.097e-07  
  1.6150e-10    1.109e-07  
  1.6200e-10    1.145e-07  
  1.6250e-10    1.078e-07  
  1.6300e-10    1.160e-07  
  1.6350e-10    1.080e-07  
  1.6400e-10    1.135e-07  
  1.6450e-10    1.146e-07  
  1.6500e-10    1.040e-07  
  1.6550e-10    1.122e-07  
  1.6600e-10    1.060e-07  
  1.6650e-10    1.157e-07  
  1.6700e-10    1.054e-07  
  1.6750e-10    1.089e-07  
  1.6800e-10    1.035e-07  
  1.6850e-10    1.118e-07  
  1.6900e-10    1.159e-07  
  1.6950e-10    1.149e-07  
  1.7000e-10    1.007e-07  
  1.7050e-10    1.095e-07  
  1.7100e-10    1.048e-07  
  1.7150e-10    1.164e-07  
  1.7200e-10    1.019e-07  
  1.7250e-10    1.114e-07  
  1.7300e-10    1.085e-07  
  1.7350e-10    1.077e-07  
  1.7400e-10    1.014e-07  
  1.7450e-10    1.069e-07  
  1.7500e-10    1.110e-07  
  1.7550e-10    9.705e-08  
  1.7600e-10    1.107e-07  
  1.7650e-10    1.091e-07  
  1.7700e-10    1.047e-07  
  1.7750e-10    9.859e-08  
  1.7800e-10    9.882e-08  
  1.7850e-10    1.096e-07  
  1.7900e-10    9.427e-08  
  1.7950e-10    1.042e-07  
  1.8000e-10    1.012e-07  
  1.8050e-10    9.706e-08  
  1.8100e-10    9.495e-08  
  1.8150e-10    9.702e-08  
  1.8200e-10    1.013e-07  
  1.8250e-10    9.437e-08  
  1.8300e-10    1.011e-07  
  1.8350e-10    9.637e-08  
  1.8400e-10    8.693e-08  
  1.8450e-10    9.665e-08  
  1.8500e-10    9.828e-08  
  1.8550e-10    9.114e-08  
  1.8600e-10    9.970e-08  
  1.8650e-10    8.926e-08  
  1.8700e-10    9.202e-08  
  1.8750e-10    1.076e-07  
  1.8800e-10    9.794e-08  
  1.8850e-10    9.034e-08  
  1.8900e-10    9.388e-08  
  1.8950e-10    9.170e-08  
  1.9000e-10    9.022e-08  
  1.9050e-10    9.808e-08  
  1.9100e-10    8.806e-08  
  1.9150e-10    9.312e-08  
  1.9200e-10    9.300e-08  
  1.9250e-10    9.661e-08  
  1.9300e-10    8.657e-08  
  1.9350e-10    9.625e-08  
  1.9400e-10    9.460e-08  
  1.9450e-10    8.674e-08  
  1.9500e-10    9.509e-08  
  1.9550e-10    9.254e-08  
  1.9600e-10    8.715e-08  
  1.9650e-10    9.817e-08  
  1.9700e-10    7.962e-08  
  1.9750e-10    9.185e-08  
  1.9800e-10    9.595e-08  
  1.9850e-10    9.826e-08  
  1.9900e-10    7.619e-08  
  1.9950e-10    9.557e-08  
  2.0000e-10    8.974e-08  
  2.0050e-10    7.973e-08  
  2.0100e-10    9.071e-08  
  2.0150e-10    8.705e-08  
  2.0200e-10    8.628e-08  
  2.0250e-10    8.970e-08  
  2.0300e-10    8.267e-08  
  2.0350e-10    8.910e-08  
  2.0400e-10    8.670e-08  
  2.0450e-10    8.945e-08  
  2.0500e-10    8.089e-08  
  2.0550e-10    8.306e-08  
  2.0600e-10    8.493e-08  
  2.0650e-10    9.370e-08  
  2.0700e-10    8.180e-08  
  2.0750e-10    8.121e-08  
  2.0800e-10    8.931e-08  
  2.0850e-10    9.184e-08  
  2.0900e-10    7.849e-08  
  2.0950e-10    9.204e-08  
  2.1000e-10    8.204e-08  
  2.1050e-10    8.779e-08  
  2.1100e-10    9.002e-08  
  2.1150e-10    7.649e-08  
  2.1200e-10    8.611e-08  
  2.1250e-10    8.217e-08  
  2.1300e-10    8.270e-08  
  2.1350e-10    8.239e-08  
  2.1400e-10    8.660e-08  
  2.1450e-10    7.703e-08  
  2.1500e-10    7.962e-08  
  2.1550e-10    9.041e-08  
  2.1600e-10    6.855e-08  
  2.1650e-10    8.422e-08  
  2.1700e-10    8.924e-08  
  2.1750e-10    6.861e-08  
  2.1800e-10    8.461e-08  
  2.1850e-10    8.229e-08  
  2.1900e-10    7.961e-08  
  2.1950e-10    8.165e-08  
  2.2000e-10    8.750e-08  
  2.2050e-10    6.290e-08  
  2.2100e-10    8.391e-08  
  2.2150e-10    8.293e-08  
  2.2200e-10    7.340e-08  
  2.2250e-10    7.633e-08  
  2.2300e-10    9.993e-08  
  2.2350e-10    7.918e-08  
  2.2400e-10    8.246e-08  
  2.2450e-10    7.679e-08  
  2.2500e-10    7.226e-08  
  2.2550e-10    7.144e-08  
  2.2600e-10    8.563e-08  
  2.2650e-10    6.220e-08  
  2.2700e-10    7.662e-08  
  2.2750e-10    7.552e-08  
  2.2800e-10    7.125e-08  
  2.2850e-10    7.238e-08  
  2.2900e-10    8.456e-08  
  2.2950e-10    6.146e-08  
  2.3000e-10    7.586e-08  
  2.3050e-10    6.950e-08  
  2.3100e-10    7.358e-08  
  2.3150e-10    7.144e-08  
  2.3200e-10    7.522e-08  
  2.3250e-10    6.462e-08  
  2.3300e-10    7.914e-08  
  2.3350e-10    6.908e-08  
  2.3400e-10    7.624e-08  
  2.3450e-10    6.007e-08  
  2.3500e-10    7.895e-08  
  2.3550e-10    5.972e-08  
  2.3600e-10    7.658e-08  
  2.3650e-10    7.161e-08  
  2.3700e-10    7.298e-08  
  2.3750e-10    7.288e-08  
  2.3800e-10    7.198e-08  
  2.3850e-10    6.544e-08  
  2.3900e-10    6.983e-08  
  2.3950e-10    6.224e-08  
  2.4000e-10    7.294e-08  
  2.4050e-10    6.808e-08  
  2.4100e-10    7.745e-08  
  2.4150e-10    6.259e-08  
  2.4200e-10    7.133e-08  
  2.4250e-10    6.154e-08  
  2.4300e-10    7.578e-08  
  2.4350e-10    6.023e-08  
  2.4400e-10    7.550e-08  
  2.4450e-10    5.587e-08  
  2.4500e-10    7.264e-08  
  2.4550e-10    5.136e-08  
  2.4600e-10    7.327e-08  
  2.4650e-10    6.351e-08  
  2.4700e-10    7.568e-08  
  2.4750e-10    5.996e-08  
  2.4800e-10    6.729e-08  
  2.4850e-10    5.869e-08  
  2.4900e-10    6.703e-08  
  2.4950e-10    5.898e-08  
  2.5000e-10    6.870e-08  
  2.5050e-10    5.826e-08  
  2.5100e-10    7.236e-08  
  2.5150e-10    5.819e-08  
  2.5200e-10    6.565e-08  
  2.5250e-10    5.488e-08  
  2.5300e-10    6.683e-08  
  2.5350e-10    5.751e-08  
  2.5400e-10    7.308e-08  
  2.5450e-10    5.722e-08  
  2.5500e-10    6.649e-08  
  2.5550e-10    5.737e-08  
  2.5600e-10    7.083e-08  
  2.5650e-10    5.951e-08  
  2.5700e-10    6.679e-08  
  2.5750e-10    5.677e-08  
  2.5800e-10    6.583e-08  
  2.5850e-10    5.792e-08  
  2.5900e-10    6.445e-08  
  2.5950e-10    5.684e-08  
  2.6000e-10    6.535e-08  
  2.6050e-10    5.609e-08  
  2.6100e-10    6.375e-08  
  2.6150e-10    5.617e-08  
  2.6200e-10    6.479e-08  
  2.6250e-10    5.572e-08  
  2.6300e-10    6.434e-08  
  2.6350e-10    5.735e-08  
  2.6400e-10    6.539e-08  
  2.6450e-10    5.551e-08  
  2.6500e-10    6.428e-08  
  2.6550e-10    5.516e-08  
  2.6600e-10    6.178e-08  
  2.6650e-10    5.547e-08  
  2.6700e-10    6.347e-08  
  2.6750e-10    5.468e-08  
  2.6800e-10    6.275e-08  
  2.6850e-10    5.348e-08  
  2.6900e-10    6.339e-08  
  2.6950e-10    5.448e-08  
  2.7000e-10    6.282e-08  
  2.7050e-10    5.947e-08  
  2.7100e-10    6.308e-08  
  2.7150e-10    5.412e-08  
  2.7200e-10    6.269e-08  
  2.7250e-10    5.247e-08  
  2.7300e-10    6.218e-08  
  2.7350e-10    5.378e-08  
  2.7400e-10    6.204e-08  
  2.7450e-10    5.600e-08  
  2.7500e-10    6.322e-08  
  2.7550e-10    5.776e-08  
  2.7600e-10    6.198e-08  
  2.7650e-10    5.712e-08  
  2.7700e-10    6.282e-08  
  2.7750e-10    6.549e-08  
  2.7800e-10    6.468e-08  
  2.7850e-10    6.228e-08  
  2.7900e-10    6.547e-08  
  2.7950e-10    6.014e-08  
  2.8000e-10    6.384e-08  
  2.8050e-10    5.925e-08  
  2.8100e-10    6.473e-08  
  2.8150e-10    5.930e-08  
  2.8200e-10    6.454e-08  
  2.8250e-10    5.595e-08  
  2.8300e-10    6.525e-08  
  2.8350e-10    5.948e-08  
  2.8400e-10    6.360e-08  
  2.8450e-10    6.870e-08  
  2.8500e-10    6.322e-08  
  2.8550e-10    5.839e-08  
  2.8600e-10    6.191e-08  
  2.8650e-10    5.554e-08  
  2.8700e-10    5.908e-08  
  2.8750e-10    5.811e-08  
  2.8800e-10    6.278e-08  
  2.8850e-10    5.729e-08  
  2.8900e-10    6.285e-08  
  2.8950e-10    5.807e-08  
  2.9000e-10    6.257e-08  
  2.9050e-10    5.686e-08  
  2.9100e-10    6.528e-08  
  2.9150e-10    5.602e-08  
  2.9200e-10    6.103e-08  
  2.9250e-10    5.726e-08  
  2.9300e-10    6.190e-08  
  2.9350e-10    5.607e-08  
  2.9400e-10    5.151e-08  
  2.9450e-10    5.659e-08  
  2.9500e-10    5.869e-08  
  2.9550e-10    5.829e-08  
  2.9600e-10    5.246e-08  
  2.9650e-10    5.880e-08  
  2.9700e-10    5.725e-08  
  2.9750e-10    5.564e-08  
  2.9800e-10    5.743e-08  
  2.9850e-10    6.238e-08  
  2.9900e-10    6.173e-08  
  2.9950e-10    5.569e-08  
  3.0000e-10    6.131e-08  
  3.0050e-10    6.237e-08  
  3.0100e-10    5.582e-08  
  3.0150e-10    5.947e-08  
  3.0200e-10    6.090e-08  
  3.0250e-10    6.408e-08  
  3.0300e-10    5.390e-08  
  3.0350e-10    6.304e-08  
  3.0400e-10    5.858e-08  
  3.0450e-10    5.695e-08  
  3.0500e-10    5.493e-08  
  3.0550e-10    6.107e-08  
  3.0600e-10    6.021e-08  
  3.0650e-10    5.557e-08  
  3.0700e-10    5.336e-08  
  3.0750e-10    5.873e-08  
  3.0800e-10    6.001e-08  
  3.0850e-10    6.085e-08  
  3.0900e-10    5.606e-08  
  3.0950e-10    4.885e-08  
  3.1000e-10    5.732e-08  
  3.1050e-10    6.264e-08  
  3.1100e-10    5.956e-08  
  3.1150e-10    5.594e-08  
  3.1200e-10    5.150e-08  
  3.1250e-10    5.771e-08  
  3.1300e-10    5.922e-08  
  3.1350e-10    5.627e-08  
  3.1400e-10    5.213e-08  
  3.1450e-10    4.943e-08  
  3.1500e-10    5.591e-08  
  3.1550e-10    6.216e-08  
  3.1600e-10    5.016e-08  
  3.1650e-10    5.257e-08  
  3.1700e-10    5.166e-08  
  3.1750e-10    6.015e-08  
  3.1800e-10    5.918e-08  
  3.1850e-10    6.359e-08  
  3.1900e-10    4.915e-08  
  3.1950e-10    4.927e-08  
  3.2000e-10    5.672e-08  
  3.2050e-10    5.794e-08  
  3.2100e-10    5.779e-08  
  3.2150e-10    5.391e-08  
  3.2200e-10    5.455e-08  
  3.2250e-10    6.158e-08  
  3.2300e-10    5.224e-08  
  3.2350e-10    6.030e-08  
  3.2400e-10    5.098e-08  
  3.2450e-10    5.651e-08  
  3.2500e-10    5.602e-08  
  3.2550e-10    5.494e-08  
  3.2600e-10    5.645e-08  
  3.2650e-10    5.518e-08  
  3.2700e-10    5.384e-08  
  3.2750e-10    5.783e-08  
  3.2800e-10    5.270e-08  
  3.2850e-10    5.619e-08  
  3.2900e-10    5.363e-08  
  3.2950e-10    5.628e-08  
  3.3000e-10    5.524e-08  
  3.3050e-10    5.438e-08  
  3.3100e-10    5.843e-08  
  3.3150e-10    5.584e-08  
  3.3200e-10    5.209e-08  
  3.3250e-10    5.676e-08  
  3.3300e-10    5.200e-08  
  3.3350e-10    5.435e-08  
  3.3400e-10    5.045e-08  
  3.3450e-10    5.659e-08  
  3.3500e-10    5.472e-08  
  3.3550e-10    5.599e-08  
  3.3600e-10    5.619e-08  
  3.3650e-10    5.221e-08  
  3.3700e-10    5.224e-08  
  3.3750e-10    5.947e-08  
  3.3800e-10    4.974e-08  
  3.3850e-10    5.786e-08  
  3.3900e-10    4.966e-08  
  3.3950e-10    5.439e-08  
  3.4000e-10    5.929e-08  
  3.4050e-10    5.203e-08  
  3.4100e-10    4.868e-08  
  3.4150e-10    4.570e-08  
  3.4200e-10    5.571e-08  
  3.4250e-10    5.465e-08  
  3.4300e-10    5.329e-08  
  3.4350e-10    4.734e-08  
  3.4400e-10    5.161e-08  
  3.4450e-10    5.055e-08  
  3.4500e-10    4.434e-08  
  3.4550e-10    4.369e-08  
  3.4600e-10    5.500e-08  
  3.4650e-10    5.829e-08  
  3.4700e-10    5.666e-08  
  3.4750e-10    5.102e-08  
  3.4800e-10    4.404e-08  
  3.4850e-10    4.869e-08  
  3.4900e-10    5.015e-08  
  3.4950e-10    4.557e-08  
  3.5000e-10    5.429e-08  
  3.5050e-10    4.316e-08  
  3.5100e-10    5.610e-08  
  3.5150e-10    5.212e-08  
  3.5200e-10    4.480e-08  
  3.5250e-10    4.958e-08  
  3.5300e-10    4.764e-08  
  3.5350e-10    4.546e-08  
  3.5400e-10    4.482e-08  
  3.5450e-10    4.991e-08  
  3.5500e-10    4.254e-08  
  3.5550e-10    4.381e-08  
  3.5600e-10    5.301e-08  
  3.5650e-10    4.184e-08  
  3.5700e-10    5.003e-08  
  3.5750e-10    5.085e-08  
  3.5800e-10    3.817e-08  
  3.5850e-10    5.278e-08  
  3.5900e-10    5.106e-08  
  3.5950e-10    4.367e-08  
  3.6000e-10    4.881e-08  
  3.6050e-10    4.641e-08  
  3.6100e-10    4.657e-08  
  3.6150e-10    4.654e-08  
  3.6200e-10    4.261e-08  
  3.6250e-10    4.073e-08  
  3.6300e-10    5.051e-08  
  3.6350e-10    5.182e-08  
  3.6400e-10    4.099e-08  
  3.6450e-10    4.254e-08  
  3.6500e-10    4.997e-08  
  3.6550e-10    4.153e-08  
  3.6600e-10    4.819e-08  
  3.6650e-10    5.067e-08  
  3.6700e-10    3.793e-08  
  3.6750e-10    5.343e-08  
  3.6800e-10    5.029e-08  
  3.6850e-10    3.610e-08  
  3.6900e-10    4.949e-08  
  3.6950e-10    4.611e-08  
  3.7000e-10    3.643e-08  
  3.7050e-10    4.941e-08  
  3.7100e-10    5.200e-08  
  3.7150e-10    3.390e-08  
  3.7200e-10    4.244e-08  
  3.7250e-10    4.856e-08  
  3.7300e-10    3.610e-08  
  3.7350e-10    4.785e-08  
  3.7400e-10    4.941e-08  
  3.7450e-10    2.813e-08  
  3.7500e-10    4.863e-08  
  3.7550e-10    4.896e-08  
  3.7600e-10    3.744e-08  
  3.7650e-10    4.888e-08  
  3.7700e-10    4.523e-08  
  3.7750e-10    3.829e-08  
  3.7800e-10    4.726e-08  
  3.7850e-10    5.081e-08  
  3.7900e-10    3.575e-08  
  3.7950e-10    3.800e-08  
  3.8000e-10    4.823e-08  
  3.8050e-10    3.242e-08  
  3.8100e-10    5.022e-08  
  3.8150e-10    4.843e-08  
  3.8200e-10    3.453e-08  
  3.8250e-10    4.662e-08  
  3.8300e-10    4.810e-08  
  3.8350e-10    3.743e-08  
  3.8400e-10    4.779e-08  
  3.8450e-10    4.436e-08  
  3.8500e-10    3.952e-08  
  3.8550e-10    4.337e-08  
  3.8600e-10    4.986e-08  
  3.8650e-10    3.531e-08  
  3.8700e-10    4.710e-08  
  3.8750e-10    4.734e-08  
  3.8800e-10    3.511e-08  
  3.8850e-10    4.939e-08  
  3.8900e-10    4.756e-08  
  3.8950e-10    3.166e-08  
  3.9000e-10    4.681e-08  
  3.9050e-10    4.382e-08  
  3.9100e-10    3.447e-08  
  3.9150e-10    4.679e-08  
  3.9200e-10    4.388e-08  
  3.9250e-10    3.107e-08  
  3.9300e-10    4.687e-08  
  3.9350e-10    4.211e-08  
  3.9400e-10    3.440e-08  
  3.9450e-10    4.323e-08  
  3.9500e-10    4.889e-08  
  3.9550e-10    3.353e-08  
  3.9600e-10    4.212e-08  
  3.9650e-10    4.650e-08  
  3.9700e-10    3.442e-08  
  3.9750e-10    4.250e-08  
  3.9800e-10    4.657e-08  
  3.9850e-10    4.065e-08  
  3.9900e-10    4.214e-08  
  3.9950e-10    4.666e-08  
  4.0000e-10    3.828e-08  
  4.0050e-10    3.398e-08  
  4.0100e-10    4.637e-08  
  4.0150e-10    4.207e-08  
  4.0200e-10    4.060e-08  
  4.0250e-10    4.676e-08  
  4.0300e-10    4.196e-08  
  4.0350e-10    4.365e-08  
  4.0400e-10    4.811e-08  
  4.0450e-10    4.139e-08  
  4.0500e-10    4.409e-08  
  4.0550e-10    4.742e-08  
  4.0600e-10    3.793e-08  
  4.0650e-10    4.983e-08  
  4.0700e-10    4.716e-08  
  4.0750e-10    4.108e-08  
  4.0800e-10    4.372e-08  
  4.0850e-10    4.711e-08  
  4.0900e-10    4.038e-08  
  4.0950e-10    4.029e-08  
  4.1000e-10    4.566e-08  
  4.1050e-10    4.098e-08  
  4.1100e-10    4.325e-08  
  4.1150e-10    4.352e-08  
  4.1200e-10    4.047e-08  
  4.1250e-10    3.930e-08  
  4.1300e-10    4.682e-08  
  4.1350e-10    4.036e-08  
  4.1400e-10    4.303e-08  
  4.1450e-10    4.588e-08  
  4.1500e-10    4.045e-08  
  4.1550e-10    4.477e-08  
  4.1600e-10    4.644e-08  
  4.1650e-10    4.029e-08  
  4.1700e-10    3.946e-08  
  4.1750e-10    4.616e-08  
  4.1800e-10    4.424e-08  
  4.1850e-10    4.199e-08  
  4.1900e-10    4.714e-08  
  4.1950e-10    4.437e-08  
  4.2000e-10    4.440e-08  
  4.2050e-10    4.606e-08  
  4.2100e-10    4.392e-08  
  4.2150e-10    4.488e-08  
  4.2200e-10    4.568e-08  
  4.2250e-10    4.040e-08  
  4.2300e-10    4.804e-08  
  4.2350e-10    4.430e-08  
  4.2400e-10    4.052e-08  
  4.2450e-10    4.453e-08  
  4.2500e-10    4.555e-08  
  4.2550e-10    4.327e-08  
  4.2600e-10    4.707e-08  
  4.2650e-10    4.266e-08  
  4.2700e-10    3.923e-08  
  4.2750e-10    4.440e-08  
  4.2800e-10    4.004e-08  
  4.2850e-10    4.007e-08  
  4.2900e-10    4.011e-08  
  4.2950e-10    3.992e-08  
  4.3000e-10    4.326e-08  
  4.3050e-10    4.406e-08  
  4.3100e-10    4.526e-08  
  4.3150e-10    4.236e-08  
  4.3200e-10    3.772e-08  
  4.3250e-10    4.464e-08  
  4.3300e-10    4.307e-08  
  4.3350e-10    3.865e-08  
  4.3400e-10    4.043e-08  
  4.3450e-10    4.279e-08  
  4.3500e-10    4.130e-08  
  4.3550e-10    4.589e-08  
  4.3600e-10    4.455e-08  
  4.3650e-10    4.191e-08  
  4.3700e-10    3.824e-08  
  4.3750e-10    4.464e-08  
  4.3800e-10    4.158e-08  
  4.3850e-10    3.905e-08  
  4.3900e-10    3.684e-08  
  4.3950e-10    4.132e-08  
  4.4000e-10    3.977e-08  
  4.4050e-10    3.800e-08  
  4.4100e-10    4.323e-08  
  4.4150e-10    4.186e-08  
  4.4200e-10    4.263e-08  
  4.4250e-10    3.887e-08  
  4.4300e-10    4.187e-08  
  4.4350e-10    4.123e-08  
  4.4400e-10    3.701e-08  
  4.4450e-10    4.295e-08  
  4.4500e-10    4.181e-08  
  4.4550e-10    3.433e-08  
  4.4600e-10    3.937e-08  
  4.4650e-10    4.304e-08  
  4.4700e-10    3.872e-08  
  4.4750e-10    4.028e-08  
  4.4800e-10    4.635e-08  
  4.4850e-10    3.838e-08  
  4.4900e-10    4.421e-08  
  4.4950e-10    3.948e-08  
  4.5000e-10    3.487e-08  
  4.5050e-10    3.563e-08  
  4.5100e-10    3.358e-08  
  4.5150e-10    4.331e-08  
  4.5200e-10    4.149e-08  
  4.5250e-10    4.391e-08  
  4.5300e-10    3.940e-08  
  4.5350e-10    3.766e-08  
  4.5400e-10    4.345e-08  
  4.5450e-10    3.944e-08  
  4.5500e-10    3.902e-08  
  4.5550e-10    3.350e-08  
  4.5600e-10    4.088e-08  
  4.5650e-10    3.910e-08  
  4.5700e-10    4.332e-08  
  4.5750e-10    4.601e-08  
  4.5800e-10    3.925e-08  
  4.5850e-10    4.429e-08  
  4.5900e-10    3.590e-08  
  4.5950e-10    4.119e-08  
  4.6000e-10    4.122e-08  
  4.6050e-10    4.227e-08  
  4.6100e-10    4.589e-08  
  4.6150e-10    3.550e-08  
  4.6200e-10    4.276e-08  
  4.6250e-10    3.643e-08  
  4.6300e-10    4.298e-08  
  4.6350e-10    3.874e-08  
  4.6400e-10    4.030e-08  
  4.6450e-10    4.415e-08  
  4.6500e-10    3.615e-08  
  4.6550e-10    3.654e-08  
  4.6600e-10    3.801e-08  
  4.6650e-10    4.275e-08  
  4.6700e-10    3.628e-08  
  4.6750e-10    4.073e-08  
  4.6800e-10    4.298e-08  
  4.6850e-10    3.944e-08  
  4.6900e-10    4.089e-08  
  4.6950e-10    3.599e-08  
  4.7000e-10    4.035e-08  
  4.7050e-10    4.502e-08  
  4.7100e-10    3.569e-08  
  4.7150e-10    4.491e-08  
  4.7200e-10    4.176e-08  
  4.7250e-10    4.036e-08  
  4.7300e-10    2.733e-08  
  4.7350e-10    3.869e-08  
  4.7400e-10    4.244e-08  
  4.7450e-10    3.997e-08  
  4.7500e-10    3.292e-08  
  4.7550e-10    3.974e-08  
  4.7600e-10    3.994e-08  
  4.7650e-10    3.772e-08  
  4.7700e-10    3.063e-08  
  4.7750e-10    4.244e-08  
  4.7800e-10    4.185e-08  
  4.7850e-10    4.116e-08  
  4.7900e-10    3.129e-08  
  4.7950e-10    3.847e-08  
  4.8000e-10    3.530e-08  
  4.8050e-10    3.948e-08  
  4.8100e-10    3.583e-08  
  4.8150e-10    3.932e-08  
  4.8200e-10    4.093e-08  
  4.8250e-10    4.216e-08  
  4.8300e-10    3.129e-08  
  4.8350e-10    3.485e-08  
  4.8400e-10    4.142e-08  
  4.8450e-10    4.188e-08  
  4.8500e-10    3.368e-08  
  4.8550e-10    3.782e-08  
  4.8600e-10    3.917e-08  
  4.8650e-10    3.948e-08  
  4.8700e-10    3.300e-08  
  4.8750e-10    4.130e-08  
  4.8800e-10    4.081e-08  
  4.8850e-10    4.091e-08  
  4.8900e-10    2.676e-08  
  4.8950e-10    3.874e-08  
  4.9000e-10    3.531e-08  
  4.9050e-10    3.872e-08  
  4.9100e-10    2.618e-08  
  4.9150e-10    5.483e-08  
  4.9200e-10    4.099e-08  
  4.9250e-10    3.899e-08  
  4.9300e-10    2.615e-08  
  4.9350e-10    4.067e-08  
  4.9400e-10    3.872e-08  
  4.9450e-10    3.863e-08  
  4.9500e-10    2.516e-08  
  4.9550e-10    3.868e-08  
  4.9600e-10    3.843e-08  
  4.9650e-10    3.870e-08  
  4.9700e-10    2.789e-08  
  4.9750e-10    3.462e-08  
  4.9800e-10    3.834e-08  
  4.9850e-10    3.768e-08  
  4.9900e-10    2.231e-08  
  4.9950e-10    3.786e-08  
  5.0000e-10    3.856e-08  
  5.0050e-10    5.298e-04  
  5.0100e-10    2.770e-05  
  5.0150e-10    1.362e-05  
  5.0200e-10    5.786e-06  
  5.0250e-10    5.061e-06  
  5.0300e-10    5.084e-06  
  5.0350e-10    5.243e-06  
  5.0400e-10    5.421e-06  
  5.0450e-10    5.562e-06  
  5.0500e-10    5.512e-06  
  5.0550e-10    5.489e-06  
  5.0600e-10    5.413e-06  
  5.0650e-10    5.292e-06  
  5.0700e-10    5.185e-06  
  5.0750e-10    5.024e-06  
  5.0800e-10    4.875e-06  
  5.0850e-10    4.722e-06  
  5.0900e-10    4.555e-06  
  5.0950e-10    4.400e-06  
  5.1000e-10    4.228e-06  
  5.1050e-10    4.060e-06  
  5.1100e-10    3.856e-06  
  5.1150e-10    3.727e-06  
  5.1200e-10    3.579e-06  
  5.1250e-10    3.429e-06  
  5.1300e-10    3.296e-06  
  5.1350e-10    3.120e-06  
  5.1400e-10    3.004e-06  
  5.1450e-10    2.871e-06  
  5.1500e-10    2.732e-06  
  5.1550e-10    2.616e-06  
  5.1600e-10    2.498e-06  
  5.1650e-10    2.396e-06  
  5.1700e-10    2.261e-06  
  5.1750e-10    2.167e-06  
  5.1800e-10    2.074e-06  
  5.1850e-10    1.990e-06  
  5.1900e-10    1.906e-06  
  5.1950e-10    1.798e-06  
  5.2000e-10    1.723e-06  
  5.2050e-10    1.652e-06  
  5.2100e-10    1.557e-06  
  5.2150e-10    1.484e-06  
  5.2200e-10    1.404e-06  
  5.2250e-10    1.362e-06  
  5.2300e-10    1.294e-06  
  5.2350e-10    1.255e-06  
  5.2400e-10    1.209e-06  
  5.2450e-10    1.129e-06  
  5.2500e-10    1.109e-06  
  5.2550e-10    1.054e-06  
  5.2600e-10    1.010e-06  
  5.2650e-10    9.598e-07  
  5.2700e-10    9.341e-07  
  5.2750e-10    8.643e-07  
  5.2800e-10    8.282e-07  
  5.2850e-10    8.033e-07  
  5.2900e-10    7.708e-07  
  5.2950e-10    7.363e-07  
  5.3000e-10    7.159e-07  
  5.3050e-10    6.746e-07  
  5.3100e-10    6.393e-07  
  5.3150e-10    6.144e-07  
  5.3200e-10    5.914e-07  
  5.3250e-10    5.829e-07  
  5.3300e-10    5.308e-07  
  5.3350e-10    5.245e-07  
  5.3400e-10    5.106e-07  
  5.3450e-10    5.086e-07  
  5.3500e-10    4.654e-07  
  5.3550e-10    4.348e-07  
  5.3600e-10    4.452e-07  
  5.3650e-10    4.324e-07  
  5.3700e-10    4.240e-07  
  5.3750e-10    4.245e-07  
  5.3800e-10    3.878e-07  
  5.3850e-10    3.890e-07  
  5.3900e-10    3.881e-07  
  5.3950e-10    3.434e-07  
  5.4000e-10    3.447e-07  
  5.4050e-10    3.135e-07  
  5.4100e-10    3.214e-07  
  5.4150e-10    3.103e-07  
  5.4200e-10    2.989e-07  
  5.4250e-10    2.699e-07  
  5.4300e-10    2.691e-07  
  5.4350e-10    2.467e-07  
  5.4400e-10    2.466e-07  
  5.4450e-10    2.494e-07  
  5.4500e-10    2.582e-07  
  5.4550e-10    2.488e-07  
  5.4600e-10    2.385e-07  
  5.4650e-10    2.141e-07  
  5.4700e-10    2.234e-07  
  5.4750e-10    2.169e-07  
  5.4800e-10    2.119e-07  
  5.4850e-10    2.038e-07  
  5.4900e-10    2.011e-07  
  5.4950e-10    1.898e-07  
  5.5050e-10    1.921e-07  
  5.5100e-10    1.522e-05  
  5.5150e-10    2.070e-05  
  5.5200e-10    2.455e-05  
  5.5250e-10    2.763e-05  
  5.5300e-10    3.012e-05  
  5.5350e-10    3.235e-05  
  5.5400e-10    3.438e-05  
  5.5450e-10    3.629e-05  
  5.5500e-10    3.815e-05  
  5.5550e-10    3.995e-05  
  5.5600e-10    4.170e-05  
  5.5650e-10    4.348e-05  
  5.5700e-10    4.537e-05  
  5.5750e-10    4.743e-05  
  5.5800e-10    4.948e-05  
  5.5850e-10    5.138e-05  
  5.5900e-10    5.298e-05  
  5.5950e-10    5.431e-05  
  5.6000e-10    5.540e-05  
  5.6050e-10    5.634e-05  
  5.6100e-10    5.716e-05  
  5.6150e-10    5.785e-05  
  5.6200e-10    5.851e-05  
  5.6250e-10    5.909e-05  
  5.6300e-10    5.964e-05  
  5.6350e-10    6.011e-05  
  5.6400e-10    6.047e-05  
  5.6450e-10    6.071e-05  
  5.6500e-10    6.040e-05  
  5.6550e-10    5.882e-05  
  5.6600e-10    5.584e-05  
  5.6650e-10    5.203e-05  
  5.6700e-10    4.788e-05  
  5.6750e-10    4.348e-05  
  5.6800e-10    3.965e-05  
  5.6850e-10    3.708e-05  
  5.6900e-10    3.562e-05  
  5.6950e-10    3.487e-05  
  5.7000e-10    3.446e-05  
  5.7050e-10    3.417e-05  
  5.7100e-10    3.398e-05  
  5.7150e-10    3.385e-05  
  5.7200e-10    3.373e-05  
  5.7250e-10    3.367e-05  
  5.7300e-10    3.358e-05  
  5.7350e-10    3.349e-05  
  5.7400e-10    3.343e-05  
  5.7450e-10    3.330e-05  
  5.7500e-10    3.319e-05  
  5.7550e-10    3.306e-05  
  5.7600e-10    3.295e-05  
  5.7650e-10    3.279e-05  
  5.7700e-10    3.264e-05  
  5.7750e-10    3.256e-05  
  5.7800e-10    3.248e-05  
  5.7850e-10    3.240e-05  
  5.7900e-10    3.234e-05  
  5.7950e-10    3.230e-05  
  5.8000e-10    3.224e-05  
  5.8050e-10    3.218e-05  
  5.8100e-10    3.217e-05  
  5.8150e-10    3.210e-05  
  5.8200e-10    3.205e-05  
  5.8250e-10    3.201e-05  
  5.8300e-10    3.200e-05  
  5.8350e-10    3.194e-05  
  5.8400e-10    3.191e-05  
  5.8450e-10    3.186e-05  
  5.8500e-10    3.183e-05  
  5.8550e-10    3.180e-05  
  5.8600e-10    3.175e-05  
  5.8650e-10    3.171e-05  
  5.8700e-10    3.168e-05  
  5.8750e-10    3.163e-05  
  5.8800e-10    3.161e-05  
  5.8850e-10    3.157e-05  
  5.8900e-10    3.153e-05  
  5.8950e-10    3.152e-05  
  5.9000e-10    3.148e-05  
  5.9050e-10    3.143e-05  
  5.9100e-10    3.141e-05  
  5.9150e-10    3.135e-05  
  5.9200e-10    3.132e-05  
  5.9250e-10    3.129e-05  
  5.9300e-10    3.127e-05  
  5.9350e-10    3.120e-05  
  5.9400e-10    3.118e-05  
  5.9450e-10    3.113e-05  
  5.9500e-10    3.110e-05  
  5.9550e-10    3.105e-05  
  5.9600e-10    3.101e-05  
  5.9650e-10    3.098e-05  
  5.9700e-10    3.094e-05  
  5.9750e-10    3.089e-05  
  5.9800e-10    3.083e-05  
  5.9850e-10    3.080e-05  
  5.9900e-10    3.076e-05  
  5.9950e-10    3.072e-05  
  6.0050e-10    3.087e-05  
  6.0100e-10    1.689e-05  
  6.0150e-10    1.304e-05  
  6.0200e-10    1.069e-05  
  6.0250e-10    9.089e-06  
  6.0300e-10    7.818e-06  
  6.0350e-10    6.559e-06  
  6.0400e-10    5.148e-06  
  6.0450e-10    3.658e-06  
  6.0500e-10    2.118e-06  
  6.0550e-10    5.721e-07  
  6.0600e-10    1.002e-06  
  6.0650e-10    2.561e-06  
  6.0700e-10    4.215e-06  
  6.0750e-10    5.919e-06  
  6.0800e-10    7.616e-06  
  6.0850e-10    9.307e-06  
  6.0900e-10    1.088e-05  
  6.0950e-10    1.232e-05  
  6.1000e-10    1.371e-05  
  6.1050e-10    1.500e-05  
  6.1100e-10    1.616e-05  
  6.1150e-10    1.716e-05  
  6.1200e-10    1.806e-05  
  6.1250e-10    1.881e-05  
  6.1300e-10    1.939e-05  
  6.1350e-10    1.985e-05  
  6.1400e-10    2.019e-05  
  6.1450e-10    2.042e-05  
  6.1500e-10    2.056e-05  
  6.1550e-10    2.062e-05  
  6.1600e-10    2.062e-05  
  6.1650e-10    2.058e-05  
  6.1700e-10    2.051e-05  
  6.1750e-10    2.040e-05  
  6.1800e-10    2.028e-05  
  6.1850e-10    2.017e-05  
  6.1900e-10    2.002e-05  
  6.1950e-10    1.996e-05  
  6.2000e-10    2.013e-05  
  6.2050e-10    2.113e-05  
  6.2100e-10    2.340e-05  
  6.2150e-10    2.624e-05  
  6.2200e-10    2.863e-05  
  6.2250e-10    3.017e-05  
  6.2300e-10    3.109e-05  
  6.2350e-10    3.153e-05  
  6.2400e-10    3.171e-05  
  6.2450e-10    3.166e-05  
  6.2500e-10    3.154e-05  
  6.2550e-10    3.133e-05  
  6.2600e-10    3.106e-05  
  6.2650e-10    3.076e-05  
  6.2700e-10    3.043e-05  
  6.2750e-10    3.007e-05  
  6.2800e-10    2.968e-05  
  6.2850e-10    2.929e-05  
  6.2900e-10    2.889e-05  
  6.2950e-10    2.845e-05  
  6.3000e-10    2.802e-05  
  6.3050e-10    2.760e-05  
  6.3100e-10    2.716e-05  
  6.3150e-10    2.667e-05  
  6.3200e-10    2.624e-05  
  6.3250e-10    2.579e-05  
  6.3300e-10    2.531e-05  
  6.3350e-10    2.484e-05  
  6.3400e-10    2.438e-05  
  6.3450e-10    2.389e-05  
  6.3500e-10    2.341e-05  
  6.3550e-10    2.292e-05  
  6.3600e-10    2.245e-05  
  6.3650e-10    2.194e-05  
  6.3700e-10    2.146e-05  
  6.3750e-10    2.099e-05  
  6.3800e-10    2.047e-05  
  6.3850e-10    2.000e-05  
  6.3900e-10    1.950e-05  
  6.3950e-10    1.901e-05  
  6.4000e-10    1.854e-05  
  6.4050e-10    1.805e-05  
  6.4100e-10    1.756e-05  
  6.4150e-10    1.708e-05  
  6.4200e-10    1.661e-05  
  6.4250e-10    1.615e-05  
  6.4300e-10    1.565e-05  
  6.4350e-10    1.516e-05  
  6.4400e-10    1.472e-05  
  6.4450e-10    1.420e-05  
  6.4500e-10    1.377e-05  
  6.4550e-10    1.331e-05  
  6.4600e-10    1.283e-05  
  6.4650e-10    1.240e-05  
  6.4700e-10    1.194e-05  
  6.4750e-10    1.149e-05  
  6.4800e-10    1.108e-05  
  6.4850e-10    1.061e-05  
  6.4900e-10    1.020e-05  
  6.4950e-10    9.777e-06  
  6.5000e-10    9.365e-06  
  6.5050e-10    8.925e-06  
  6.5100e-10    8.518e-06  
  6.5150e-10    8.126e-06  
  6.5200e-10    7.691e-06  
  6.5250e-10    7.299e-06  
  6.5300e-10    6.919e-06  
  6.5350e-10    6.509e-06  
  6.5400e-10    6.120e-06  
  6.5450e-10    5.781e-06  
  6.5500e-10    5.354e-06  
  6.5550e-10    4.991e-06  
  6.5600e-10    4.628e-06  
  6.5650e-10    4.274e-06  
  6.5700e-10    3.889e-06  
  6.5750e-10    3.548e-06  
  6.5800e-10    3.184e-06  
  6.5850e-10    2.832e-06  
  6.5900e-10    2.457e-06  
  6.5950e-10    2.133e-06  
  6.6000e-10    1.802e-06  
  6.6050e-10    1.466e-06  
  6.6100e-10    1.162e-06  
  6.6150e-10    8.261e-07  
  6.6200e-10    4.989e-07  
  6.6250e-10    1.802e-07  
  6.6300e-10    1.120e-07  
  6.6350e-10    4.101e-07  
  6.6400e-10    7.194e-07  
  6.6450e-10    1.005e-06  
  6.6500e-10    1.330e-06  
  6.6550e-10    1.627e-06  
  6.6600e-10    1.875e-06  
  6.6650e-10    2.136e-06  
  6.6700e-10    2.415e-06  
  6.6750e-10    2.633e-06  
  6.6800e-10    2.889e-06  
  6.6850e-10    3.109e-06  
  6.6900e-10    3.337e-06  
  6.6950e-10    3.551e-06  
  6.7000e-10    3.740e-06  
  6.7050e-10    3.942e-06  
  6.7100e-10    4.130e-06  
  6.7150e-10    4.293e-06  
  6.7200e-10    4.474e-06  
  6.7250e-10    4.639e-06  
  6.7300e-10    4.804e-06  
  6.7350e-10    4.961e-06  
  6.7400e-10    5.111e-06  
  6.7450e-10    5.256e-06  
  6.7500e-10    5.402e-06  
  6.7550e-10    5.540e-06  
  6.7600e-10    5.682e-06  
  6.7650e-10    5.805e-06  
  6.7700e-10    5.942e-06  
  6.7750e-10    6.052e-06  
  6.7800e-10    6.176e-06  
  6.7850e-10    6.295e-06  
  6.7900e-10    6.433e-06  
  6.7950e-10    6.527e-06  
  6.8000e-10    6.633e-06  
  6.8050e-10    6.760e-06  
  6.8100e-10    6.845e-06  
  6.8150e-10    6.947e-06  
  6.8200e-10    7.054e-06  
  6.8250e-10    7.152e-06  
  6.8300e-10    7.241e-06  
  6.8350e-10    7.347e-06  
  6.8400e-10    7.429e-06  
  6.8450e-10    7.537e-06  
  6.8500e-10    7.614e-06  
  6.8550e-10    7.714e-06  
  6.8600e-10    7.784e-06  
  6.8650e-10    7.880e-06  
  6.8700e-10    7.941e-06  
  6.8750e-10    8.026e-06  
  6.8800e-10    8.094e-06  
  6.8850e-10    8.191e-06  
  6.8900e-10    8.238e-06  
  6.8950e-10    8.319e-06  
  6.9000e-10    8.360e-06  
  6.9050e-10    8.443e-06  
  6.9100e-10    8.497e-06  
  6.9150e-10    8.545e-06  
  6.9200e-10    8.622e-06  
  6.9250e-10    8.677e-06  
  6.9300e-10    8.732e-06  
  6.9350e-10    8.782e-06  
  6.9400e-10    8.844e-06  
  6.9450e-10    8.911e-06  
  6.9500e-10    8.982e-06  
  6.9550e-10    9.058e-06  
  6.9600e-10    9.196e-06  
  6.9650e-10    9.327e-06  
  6.9700e-10    9.483e-06  
  6.9750e-10    9.652e-06  
  6.9800e-10    9.844e-06  
  6.9850e-10    1.005e-05  
  6.9900e-10    1.029e-05  
  6.9950e-10    1.053e-05  
  7.0000e-10    1.081e-05  
  7.0050e-10    1.106e-05  
  7.0100e-10    1.136e-05  
  7.0150e-10    1.172e-05  
  7.0200e-10    1.213e-05  
  7.0250e-10    1.258e-05  
  7.0300e-10    1.305e-05  
  7.0350e-10    1.352e-05  
  7.0400e-10    1.399e-05  
  7.0450e-10    1.445e-05  
  7.0500e-10    1.499e-05  
  7.0550e-10    1.554e-05  
  7.0600e-10    1.616e-05  
  7.0650e-10    1.684e-05  
  7.0700e-10    1.754e-05  
  7.0750e-10    1.822e-05  
  7.0800e-10    1.881e-05  
  7.0850e-10    1.932e-05  
  7.0900e-10    1.971e-05  
  7.0950e-10    1.996e-05  
  7.1000e-10    2.017e-05  
  7.1050e-10    2.026e-05  
  7.1100e-10    2.025e-05  
  7.1150e-10    2.016e-05  
  7.1200e-10    2.000e-05  
  7.1250e-10    1.979e-05  
  7.1300e-10    1.952e-05  
  7.1350e-10    1.922e-05  
  7.1400e-10    1.892e-05  
  7.1450e-10    1.860e-05  
  7.1500e-10    1.826e-05  
  7.1550e-10    1.792e-05  
  7.1600e-10    1.761e-05  
  7.1650e-10    1.728e-05  
  7.1700e-10    1.698e-05  
  7.1750e-10    1.669e-05  
  7.1800e-10    1.638e-05  
  7.1850e-10    1.610e-05  
  7.1900e-10    1.584e-05  
  7.1950e-10    1.557e-05  
  7.2000e-10    1.532e-05  
  7.2050e-10    1.508e-05  
  7.2100e-10    1.485e-05  
  7.2150e-10    1.460e-05  
  7.2200e-10    1.441e-05  
  7.2250e-10    1.418e-05  
  7.2300e-10    1.397e-05  
  7.2350e-10    1.375e-05  
  7.2400e-10    1.354e-05  
  7.2450e-10    1.333e-05  
  7.2500e-10    1.314e-05  
  7.2550e-10    1.294e-05  
  7.2600e-10    1.273e-05  
  7.2650e-10    1.251e-05  
  7.2700e-10    1.229e-05  
  7.2750e-10    1.207e-05  
  7.2800e-10    1.185e-05  
  7.2850e-10    1.165e-05  
  7.2900e-10    1.151e-05  
  7.2950e-10    1.136e-05  
  7.3000e-10    1.128e-05  
  7.3050e-10    1.122e-05  
  7.3100e-10    1.118e-05  
  7.3150e-10    1.111e-05  
  7.3200e-10    1.105e-05  
  7.3250e-10    1.098e-05  
  7.3300e-10    1.092e-05  
  7.3350e-10    1.079e-05  
  7.3400e-10    1.067e-05  
  7.3450e-10    1.057e-05  
  7.3500e-10    1.035e-05  
  7.3550e-10    1.020e-05  
  7.3600e-10    1.001e-05  
  7.3650e-10    9.792e-06  
  7.3700e-10    9.575e-06  
  7.3750e-10    9.350e-06  
  7.3800e-10    9.132e-06  
  7.3850e-10    8.900e-06  
  7.3900e-10    8.661e-06  
  7.3950e-10    8.450e-06  
  7.4000e-10    8.203e-06  
  7.4050e-10    7.963e-06  
  7.4100e-10    7.727e-06  
  7.4150e-10    7.509e-06  
  7.4200e-10    7.266e-06  
  7.4250e-10    7.044e-06  
  7.4300e-10    6.831e-06  
  7.4350e-10    6.629e-06  
  7.4400e-10    6.403e-06  
  7.4450e-10    6.209e-06  
  7.4500e-10    6.002e-06  
  7.4550e-10    5.838e-06  
  7.4600e-10    5.637e-06  
  7.4650e-10    5.459e-06  
  7.4700e-10    5.262e-06  
  7.4750e-10    5.116e-06  
  7.4800e-10    4.952e-06  
  7.4850e-10    4.809e-06  
  7.4900e-10    4.623e-06  
  7.4950e-10    4.484e-06  
  7.5000e-10    4.337e-06  
  7.5050e-10    4.182e-06  
  7.5100e-10    4.083e-06  
  7.5150e-10    3.957e-06  
  7.5200e-10    3.815e-06  
  7.5250e-10    3.708e-06  
  7.5300e-10    3.598e-06  
  7.5350e-10    3.471e-06  
  7.5400e-10    3.360e-06  
  7.5450e-10    3.264e-06  
  7.5500e-10    3.152e-06  
  7.5550e-10    3.078e-06  
  7.5600e-10    2.980e-06  
  7.5650e-10    2.900e-06  
  7.5700e-10    2.808e-06  
  7.5750e-10    2.734e-06  
  7.5800e-10    2.631e-06  
  7.5850e-10    2.584e-06  
  7.5900e-10    2.486e-06  
  7.5950e-10    2.436e-06  
  7.6000e-10    2.353e-06  
  7.6050e-10    2.300e-06  
  7.6100e-10    2.216e-06  
  7.6150e-10    2.179e-06  
  7.6200e-10    2.126e-06  
  7.6250e-10    2.054e-06  
  7.6300e-10    2.014e-06  
  7.6350e-10    1.946e-06  
  7.6400e-10    1.909e-06  
  7.6450e-10    1.867e-06  
  7.6500e-10    1.821e-06  
  7.6550e-10    1.783e-06  
  7.6600e-10    1.733e-06  
  7.6650e-10    1.683e-06  
  7.6700e-10    1.641e-06  
  7.6750e-10    1.615e-06  
  7.6800e-10    1.578e-06  
  7.6850e-10    1.535e-06  
  7.6900e-10    1.511e-06  
  7.6950e-10    1.478e-06  
  7.7000e-10    1.441e-06  
  7.7050e-10    1.400e-06  
  7.7100e-10    1.377e-06  
  7.7150e-10    1.363e-06  
  7.7200e-10    1.307e-06  
  7.7250e-10    1.301e-06  
  7.7300e-10    1.286e-06  
  7.7350e-10    1.245e-06  
  7.7400e-10    1.226e-06  
  7.7450e-10    1.237e-06  
  7.7500e-10    1.178e-06  
  7.7550e-10    1.151e-06  
  7.7600e-10    1.133e-06  
  7.7650e-10    1.117e-06  
  7.7700e-10    1.093e-06  
  7.7750e-10    1.082e-06  
  7.7800e-10    1.032e-06  
  7.7850e-10    1.033e-06  
  7.7900e-10    1.012e-06  
  7.7950e-10    9.799e-07  
  7.8000e-10    9.692e-07  
  7.8050e-10    9.650e-07  
  7.8100e-10    9.497e-07  
  7.8150e-10    9.184e-07  
  7.8200e-10    9.022e-07  
  7.8250e-10    8.834e-07  
  7.8300e-10    8.810e-07  
  7.8350e-10    8.451e-07  
  7.8400e-10    8.322e-07  
  7.8450e-10    8.295e-07  
  7.8500e-10    8.545e-07  
  7.8550e-10    8.467e-07  
  7.8600e-10    8.133e-07  
  7.8650e-10    8.371e-07  
  7.8700e-10    8.179e-07  
  7.8750e-10    7.883e-07  
  7.8800e-10    7.797e-07  
  7.8850e-10    7.639e-07  
  7.8900e-10    7.501e-07  
  7.8950e-10    7.353e-07  
  7.9000e-10    7.073e-07  
  7.9050e-10    6.911e-07  
  7.9100e-10    6.805e-07  
  7.9150e-10    6.766e-07  
  7.9200e-10    6.581e-07  
  7.9250e-10    6.769e-07  
  7.9300e-10    6.546e-07  
  7.9350e-10    6.634e-07  
  7.9400e-10    6.474e-07  
  7.9450e-10    6.190e-07  
  7.9500e-10    6.161e-07  
  7.9550e-10    5.909e-07  
  7.9600e-10    6.006e-07  
  7.9650e-10    6.020e-07  
  7.9700e-10    6.017e-07  
  7.9750e-10    5.916e-07  
  7.9800e-10    5.762e-07  
  7.9850e-10    5.658e-07  
  7.9900e-10    5.929e-07  
  7.9950e-10    5.480e-07  
  8.0000e-10    5.295e-07  
  8.0050e-10    5.623e-07  
  8.0100e-10    5.213e-07  
  8.0150e-10    5.195e-07  
  8.0200e-10    5.544e-07  
  8.0250e-10    5.218e-07  
  8.0300e-10    4.879e-07  
  8.0350e-10    5.348e-07  
  8.0400e-10    5.146e-07  
  8.0450e-10    4.899e-07  
  8.0500e-10    5.017e-07  
  8.0550e-10    4.806e-07  
  8.0600e-10    4.773e-07  
  8.0650e-10    4.813e-07  
  8.0700e-10    4.712e-07  
  8.0750e-10    4.607e-07  
  8.0800e-10    4.417e-07  
  8.0850e-10    4.496e-07  
  8.0900e-10    4.238e-07  
  8.0950e-10    4.502e-07  
  8.1000e-10    4.324e-07  
  8.1050e-10    4.129e-07  
  8.1100e-10    4.320e-07  
  8.1150e-10    4.233e-07  
  8.1200e-10    4.173e-07  
  8.1250e-10    4.268e-07  
  8.1300e-10    4.051e-07  
  8.1350e-10    4.230e-07  
  8.1400e-10    3.928e-07  
  8.1450e-10    4.128e-07  
  8.1500e-10    3.775e-07  
  8.1550e-10    4.060e-07  
  8.1600e-10    3.782e-07  
  8.1650e-10    4.116e-07  
  8.1700e-10    3.837e-07  
  8.1750e-10    3.702e-07  
  8.1800e-10    3.744e-07  
  8.1850e-10    3.813e-07  
  8.1900e-10    3.615e-07  
  8.1950e-10    3.372e-07  
  8.2000e-10    3.593e-07  
  8.2050e-10    3.389e-07  
  8.2100e-10    3.359e-07  
  8.2150e-10    3.537e-07  
  8.2200e-10    3.386e-07  
  8.2250e-10    3.194e-07  
  8.2300e-10    3.248e-07  
  8.2350e-10    3.326e-07  
  8.2400e-10    3.429e-07  
  8.2450e-10    3.167e-07  
  8.2500e-10    3.156e-07  
  8.2550e-10    2.928e-07  
  8.2600e-10    3.115e-07  
  8.2650e-10    2.959e-07  
  8.2700e-10    3.071e-07  
  8.2750e-10    3.069e-07  
  8.2800e-10    3.151e-07  
  8.2850e-10    2.886e-07  
  8.2900e-10    3.061e-07  
  8.2950e-10    3.079e-07  
  8.3000e-10    2.933e-07  
  8.3050e-10    2.948e-07  
  8.3100e-10    2.993e-07  
  8.3150e-10    2.782e-07  
  8.3200e-10    2.943e-07  
  8.3250e-10    2.741e-07  
  8.3300e-10    2.700e-07  
  8.3350e-10    2.571e-07  
  8.3400e-10    2.759e-07  
  8.3450e-10    2.643e-07  
  8.3500e-10    2.455e-07  
  8.3550e-10    2.609e-07  
  8.3600e-10    2.452e-07  
  8.3650e-10    2.541e-07  
  8.3700e-10    2.585e-07  
  8.3750e-10    2.370e-07  
  8.3800e-10    2.458e-07  
  8.3850e-10    2.458e-07  
  8.3900e-10    2.435e-07  
  8.3950e-10    2.419e-07  
  8.4000e-10    2.432e-07  
  8.4050e-10    2.546e-07  
  8.4100e-10    2.379e-07  
  8.4150e-10    2.417e-07  
  8.4200e-10    2.172e-07  
  8.4250e-10    2.283e-07  
  8.4300e-10    2.241e-07  
  8.4350e-10    2.253e-07  
  8.4400e-10    2.307e-07  
  8.4450e-10    2.473e-07  
  8.4500e-10    2.134e-07  
  8.4550e-10    2.274e-07  
  8.4600e-10    2.122e-07  
  8.4650e-10    2.167e-07  
  8.4700e-10    2.306e-07  
  8.4750e-10    2.077e-07  
  8.4800e-10    1.974e-07  
  8.4850e-10    2.109e-07  
  8.4900e-10    2.052e-07  
  8.4950e-10    2.189e-07  
  8.5000e-10    2.020e-07  
  8.5050e-10    2.121e-07  
  8.5100e-10    2.038e-07  
  8.5150e-10    2.003e-07  
  8.5200e-10    1.914e-07  
  8.5250e-10    1.988e-07  
  8.5300e-10    1.879e-07  
  8.5350e-10    1.919e-07  
  8.5400e-10    1.949e-07  
  8.5450e-10    1.854e-07  
  8.5500e-10    1.881e-07  
  8.5550e-10    1.901e-07  
  8.5600e-10    1.856e-07  
  8.5650e-10    1.891e-07  
  8.5700e-10    1.845e-07  
  8.5750e-10    1.911e-07  
  8.5800e-10    1.815e-07  
  8.5850e-10    1.830e-07  
  8.5900e-10    1.753e-07  
  8.5950e-10    1.808e-07  
  8.6000e-10    1.660e-07  
  8.6050e-10    1.779e-07  
  8.6100e-10    1.749e-07  
  8.6150e-10    1.808e-07  
  8.6200e-10    1.719e-07  
  8.6250e-10    1.771e-07  
  8.6300e-10    1.656e-07  
  8.6350e-10    1.736e-07  
  8.6400e-10    1.644e-07  
  8.6450e-10    1.675e-07  
  8.6500e-10    1.676e-07  
  8.6550e-10    1.669e-07  
  8.6600e-10    1.643e-07  
  8.6650e-10    1.702e-07  
  8.6700e-10    1.712e-07  
  8.6750e-10    1.691e-07  
  8.6800e-10    1.504e-07  
  8.6850e-10    1.611e-07  
  8.6900e-10    1.605e-07  
  8.6950e-10    1.611e-07  
  8.7000e-10    1.629e-07  
  8.7050e-10    1.578e-07  
  8.7100e-10    1.624e-07  
  8.7150e-10    1.597e-07  
  8.7200e-10    1.560e-07  
  8.7250e-10    1.470e-07  
  8.7300e-10    1.559e-07  
  8.7350e-10    1.554e-07  
  8.7400e-10    1.599e-07  
  8.7450e-10    1.504e-07  
  8.7500e-10    1.516e-07  
  8.7550e-10    1.525e-07  
  8.7600e-10    1.534e-07  
  8.7650e-10    1.478e-07  
  8.7700e-10    1.491e-07  
  8.7750e-10    1.535e-07  
  8.7800e-10    1.430e-07  
  8.7850e-10    1.432e-07  
  8.7900e-10    1.399e-07  
  8.7950e-10    1.349e-07  
  8.8000e-10    1.506e-07  
  8.8050e-10    1.425e-07  
  8.8100e-10    1.372e-07  
  8.8150e-10    1.477e-07  
  8.8200e-10    1.361e-07  
  8.8250e-10    1.388e-07  
  8.8300e-10    1.395e-07  
  8.8350e-10    1.333e-07  
  8.8400e-10    1.423e-07  
  8.8450e-10    1.306e-07  
  8.8500e-10    1.382e-07  
  8.8550e-10    1.319e-07  
  8.8600e-10    1.417e-07  
  8.8650e-10    1.357e-07  
  8.8700e-10    1.309e-07  
  8.8750e-10    1.325e-07  
  8.8800e-10    1.270e-07  
  8.8850e-10    1.321e-07  
  8.8900e-10    1.259e-07  
  8.8950e-10    1.300e-07  
  8.9000e-10    1.253e-07  
  8.9050e-10    1.287e-07  
  8.9100e-10    1.240e-07  
  8.9150e-10    1.191e-07  
  8.9200e-10    1.263e-07  
  8.9250e-10    1.207e-07  
  8.9300e-10    1.245e-07  
  8.9350e-10    1.315e-07  
  8.9400e-10    1.224e-07  
  8.9450e-10    1.303e-07  
  8.9500e-10    1.291e-07  
  8.9550e-10    1.327e-07  
  8.9600e-10    1.225e-07  
  8.9650e-10    1.226e-07  
  8.9700e-10    1.222e-07  
  8.9750e-10    1.255e-07  
  8.9800e-10    1.243e-07  
  8.9850e-10    1.160e-07  
  8.9900e-10    1.234e-07  
  8.9950e-10    1.303e-07  
  9.0000e-10    1.134e-07  
  9.0050e-10    1.191e-07  
  9.0100e-10    1.230e-07  
  9.0150e-10    1.148e-07  
  9.0200e-10    1.159e-07  
  9.0250e-10    1.223e-07  
  9.0300e-10    1.151e-07  
  9.0350e-10    1.240e-07  
  9.0400e-10    1.199e-07  
  9.0450e-10    1.115e-07  
  9.0500e-10    1.189e-07  
  9.0550e-10    1.254e-07  
  9.0600e-10    1.046e-07  
  9.0650e-10    1.142e-07  
  9.0700e-10    1.208e-07  
  9.0750e-10    1.138e-07  
  9.0800e-10    1.005e-07  
  9.0850e-10    1.173e-07  
  9.0900e-10    1.042e-07  
  9.0950e-10    1.165e-07  
  9.1000e-10    1.167e-07  
  9.1050e-10    1.020e-07  
  9.1100e-10    1.103e-07  
  9.1150e-10    1.200e-07  
  9.1200e-10    1.041e-07  
  9.1250e-10    1.096e-07  
  9.1300e-10    1.169e-07  
  9.1350e-10    1.096e-07  
  9.1400e-10    1.177e-07  
  9.1450e-10    1.121e-07  
  9.1500e-10    1.020e-07  
  9.1550e-10    1.123e-07  
  9.1600e-10    1.105e-07  
  9.1650e-10    9.998e-08  
  9.1700e-10    1.116e-07  
  9.1750e-10    1.099e-07  
  9.1800e-10    1.038e-07  
  9.1850e-10    1.110e-07  
  9.1900e-10    1.082e-07  
  9.1950e-10    9.855e-08  
  9.2000e-10    1.002e-07  
  9.2050e-10    1.090e-07  
  9.2100e-10    1.027e-07  
  9.2150e-10    1.086e-07  
  9.2200e-10    1.066e-07  
  9.2250e-10    1.021e-07  
  9.2300e-10    9.944e-08  
  9.2350e-10    1.061e-07  
  9.2400e-10    1.012e-07  
  9.2450e-10    1.100e-07  
  9.2500e-10    1.071e-07  
  9.2550e-10    1.007e-07  
  9.2600e-10    1.037e-07  
  9.2650e-10    9.931e-08  
  9.2700e-10    1.024e-07  
  9.2750e-10    1.005e-07  
  9.2800e-10    1.033e-07  
  9.2850e-10    9.874e-08  
  9.2900e-10    1.076e-07  
  9.2950e-10    9.634e-08  
  9.3000e-10    1.023e-07  
  9.3050e-10    1.056e-07  
  9.3100e-10    1.001e-07  
  9.3150e-10    1.042e-07  
  9.3200e-10    1.013e-07  
  9.3250e-10    9.902e-08  
  9.3300e-10    1.037e-07  
  9.3350e-10    1.054e-07  
  9.3400e-10    1.009e-07  
  9.3450e-10    9.611e-08  
  9.3500e-10    1.019e-07  
  9.3550e-10    8.691e-08  
  9.3600e-10    9.928e-08  
  9.3650e-10    1.039e-07  
  9.3700e-10    9.691e-08  
  9.3750e-10    9.728e-08  
  9.3800e-10    9.645e-08  
  9.3850e-10    9.627e-08  
  9.3900e-10    9.476e-08  
  9.3950e-10    1.001e-07  
  9.4000e-10    9.285e-08  
  9.4050e-10    9.745e-08  
  9.4100e-10    9.436e-08  
  9.4150e-10    9.477e-08  
  9.4200e-10    9.822e-08  
  9.4250e-10    1.012e-07  
  9.4300e-10    8.972e-08  
  9.4350e-10    9.621e-08  
  9.4400e-10    9.271e-08  
  9.4450e-10    9.394e-08  
  9.4500e-10    9.546e-08  
  9.4550e-10    9.690e-08  
  9.4600e-10    8.819e-08  
  9.4650e-10    8.971e-08  
  9.4700e-10    9.205e-08  
  9.4750e-10    9.247e-08  
  9.4800e-10    8.990e-08  
  9.4850e-10    9.627e-08  
  9.4900e-10    8.722e-08  
  9.4950e-10    9.433e-08  
  9.5000e-10    9.125e-08  
  9.5050e-10    9.175e-08  
  9.5100e-10    8.847e-08  
  9.5150e-10    9.811e-08  
  9.5200e-10    8.634e-08  
  9.5250e-10    9.304e-08  
  9.5300e-10    8.825e-08  
  9.5350e-10    8.565e-08  
  9.5400e-10    8.801e-08  
  9.5450e-10    9.445e-08  
  9.5500e-10    8.424e-08  
  9.5550e-10    9.370e-08  
  9.5600e-10    9.139e-08  
  9.5650e-10    9.174e-08  
  9.5700e-10    8.816e-08  
  9.5750e-10    9.098e-08  
  9.5800e-10    8.610e-08  
  9.5850e-10    8.698e-08  
  9.5900e-10    8.845e-08  
  9.5950e-10    9.260e-08  
  9.6000e-10    8.874e-08  
  9.6050e-10    9.434e-08  
  9.6100e-10    8.575e-08  
  9.6150e-10    9.295e-08  
  9.6200e-10    8.499e-08  
  9.6250e-10    8.910e-08  
  9.6300e-10    8.715e-08  
  9.6350e-10    8.547e-08  
  9.6400e-10    8.414e-08  
  9.6450e-10    8.476e-08  
  9.6500e-10    8.442e-08  
  9.6550e-10    9.225e-08  
  9.6600e-10    9.142e-08  
  9.6650e-10    8.953e-08  
  9.6700e-10    8.003e-08  
  9.6750e-10    9.021e-08  
  9.6800e-10    8.349e-08  
  9.6850e-10    9.019e-08  
  9.6900e-10    8.498e-08  
  9.6950e-10    8.951e-08  
  9.7000e-10    8.364e-08  
  9.7050e-10    8.879e-08  
  9.7100e-10    8.309e-08  
  9.7150e-10    8.954e-08  
  9.7200e-10    8.264e-08  
  9.7250e-10    9.089e-08  
  9.7300e-10    8.258e-08  
  9.7350e-10    8.891e-08  
  9.7400e-10    8.124e-08  
  9.7450e-10    8.878e-08  
  9.7500e-10    8.465e-08  
  9.7550e-10    8.851e-08  
  9.7600e-10    8.832e-08  
  9.7650e-10    8.846e-08  
  9.7700e-10    8.190e-08  
  9.7750e-10    8.469e-08  
  9.7800e-10    8.157e-08  
  9.7850e-10    8.734e-08  
  9.7900e-10    8.154e-08  
  9.7950e-10    9.159e-08  
  9.8000e-10    8.120e-08  
  9.8050e-10    8.731e-08  
  9.8100e-10    6.532e-08  
  9.8150e-10    8.825e-08  
  9.8200e-10    8.002e-08  
  9.8250e-10    8.720e-08  
  9.8300e-10    8.197e-08  
  9.8350e-10    8.678e-08  
  9.8400e-10    8.272e-08  
  9.8450e-10    8.296e-08  
  9.8500e-10    8.025e-08  
  9.8550e-10    8.622e-08  
  9.8600e-10    7.992e-08  
  9.8650e-10    8.256e-08  
  9.8700e-10    7.968e-08  
  9.8750e-10    8.567e-08  
  9.8800e-10    8.196e-08  
  9.8850e-10    8.445e-08  
  9.8900e-10    8.152e-08  
  9.8950e-10    8.287e-08  
  9.9000e-10    7.912e-08  
  9.9050e-10    8.135e-08  
  9.9100e-10    7.912e-08  
  9.9150e-10    8.486e-08  
  9.9200e-10    7.879e-08  
  9.9250e-10    8.126e-08  
  9.9300e-10    8.107e-08  
  9.9350e-10    8.455e-08  
  9.9400e-10    7.843e-08  
  9.9450e-10    8.048e-08  
  9.9500e-10    7.853e-08  
  9.9550e-10    8.457e-08  
  9.9600e-10    7.809e-08  
  9.9650e-10    8.262e-08  
  9.9700e-10    8.182e-08  
  9.9750e-10    8.861e-08  
  9.9800e-10    8.187e-08  
  9.9850e-10    8.271e-08  
  9.9900e-10    8.142e-08  
  9.9950e-10    8.585e-08  
  1.0000e-09    8.144e-08  
  1.0005e-09    3.052e-04  
  1.0010e-09    1.831e-04  
  1.0015e-09    1.520e-04  
  1.0020e-09    1.346e-04  
  1.0025e-09    1.264e-04  
  1.0030e-09    1.228e-04  
  1.0035e-09    1.200e-04  
  1.0040e-09    1.182e-04  
  1.0045e-09    1.169e-04  
  1.0050e-09    1.152e-04  
  1.0055e-09    1.130e-04  
  1.0060e-09    1.106e-04  
  1.0065e-09    1.075e-04  
  1.0070e-09    1.038e-04  
  1.0075e-09    9.989e-05  
  1.0080e-09    9.572e-05  
  1.0085e-09    9.017e-05  
  1.0090e-09    8.366e-05  
  1.0095e-09    7.579e-05  
  1.0100e-09    6.983e-05  
  1.0105e-09    6.331e-05  
  1.0110e-09    5.846e-05  
  1.0115e-09    5.450e-05  
  1.0120e-09    5.115e-05  
  1.0125e-09    4.829e-05  
  1.0130e-09    4.591e-05  
  1.0135e-09    4.395e-05  
  1.0140e-09    4.235e-05  
  1.0145e-09    4.103e-05  
  1.0150e-09    3.998e-05  
  1.0155e-09    3.905e-05  
  1.0160e-09    3.809e-05  
  1.0165e-09    3.675e-05  
  1.0170e-09    3.578e-05  
  1.0175e-09    3.687e-05  
  1.0180e-09    3.709e-05  
  1.0185e-09    3.671e-05  
  1.0190e-09    3.594e-05  
  1.0195e-09    3.502e-05  
  1.0200e-09    3.399e-05  
  1.0205e-09    3.297e-05  
  1.0210e-09    3.197e-05  
  1.0215e-09    3.103e-05  
  1.0220e-09    3.028e-05  
  1.0225e-09    2.984e-05  
  1.0230e-09    3.001e-05  
  1.0235e-09    3.101e-05  
  1.0240e-09    3.273e-05  
  1.0245e-09    3.519e-05  
  1.0250e-09    3.735e-05  
  1.0255e-09    3.934e-05  
  1.0260e-09    4.076e-05  
  1.0265e-09    4.152e-05  
  1.0270e-09    4.189e-05  
  1.0275e-09    4.221e-05  
  1.0280e-09    4.245e-05  
  1.0285e-09    4.258e-05  
  1.0290e-09    4.255e-05  
  1.0295e-09    4.245e-05  
  1.0300e-09    4.253e-05  
  1.0305e-09    4.225e-05  
  1.0310e-09    4.172e-05  
  1.0315e-09    4.043e-05  
  1.0320e-09    3.882e-05  
  1.0325e-09    3.703e-05  
  1.0330e-09    3.533e-05  
  1.0335e-09    3.374e-05  
  1.0340e-09    3.240e-05  
  1.0345e-09    3.119e-05  
  1.0350e-09    3.004e-05  
  1.0355e-09    2.897e-05  
  1.0360e-09    2.775e-05  
  1.0365e-09    2.642e-05  
  1.0370e-09    2.474e-05  
  1.0375e-09    2.281e-05  
  1.0380e-09    2.086e-05  
  1.0385e-09    1.901e-05  
  1.0390e-09    1.731e-05  
  1.0395e-09    1.577e-05  
  1.0400e-09    1.439e-05  
  1.0405e-09    1.313e-05  
  1.0410e-09    1.199e-05  
  1.0415e-09    1.094e-05  
  1.0420e-09    1.001e-05  
  1.0425e-09    9.176e-06  
  1.0430e-09    8.413e-06  
  1.0435e-09    7.731e-06  
  1.0440e-09    7.087e-06  
  1.0445e-09    6.511e-06  
  1.0450e-09    5.982e-06  
  1.0455e-09    5.489e-06  
  1.0460e-09    5.054e-06  
  1.0465e-09    4.652e-06  
  1.0470e-09    4.260e-06  
  1.0475e-09    3.953e-06  
  1.0480e-09    3.633e-06  
  1.0485e-09    3.352e-06  
  1.0490e-09    3.117e-06  
  1.0495e-09    2.892e-06  
  1.0500e-09    2.674e-06  
  1.0505e-09    2.457e-06  
  1.0510e-09    2.284e-06  
  1.0515e-09    2.128e-06  
  1.0520e-09    1.983e-06  
  1.0525e-09    1.865e-06  
  1.0530e-09    1.709e-06  
  1.0535e-09    1.609e-06  
  1.0540e-09    1.513e-06  
  1.0545e-09    1.434e-06  
  1.0550e-09    1.338e-06  
  1.0555e-09    1.237e-06  
  1.0560e-09    1.184e-06  
  1.0565e-09    1.120e-06  
  1.0570e-09    1.067e-06  
  1.0575e-09    1.010e-06  
  1.0580e-09    9.398e-07  
  1.0585e-09    9.177e-07  
  1.0590e-09    8.623e-07  
  1.0595e-09    8.087e-07  
  1.0600e-09    7.773e-07  
  1.0605e-09    7.418e-07  
  1.0610e-09    7.100e-07  
  1.0615e-09    7.101e-07  
  1.0620e-09    6.957e-07  
  1.0625e-09    6.461e-07  
  1.0630e-09    6.189e-07  
  1.0635e-09    6.279e-07  
  1.0640e-09    5.888e-07  
  1.0645e-09    5.844e-07  
  1.0650e-09    5.610e-07  
  1.0655e-09    5.362e-07  
  1.0660e-09    5.071e-07  
  1.0665e-09    5.087e-07  
  1.0670e-09    4.903e-07  
  1.0675e-09    4.725e-07  
  1.0680e-09    4.585e-07  
  1.0685e-09    4.432e-07  
  1.0690e-09    4.508e-07  
  1.0695e-09    4.422e-07  
  1.0700e-09    4.208e-07  
  1.0705e-09    4.128e-07  
  1.0710e-09    4.087e-07  
  1.0715e-09    4.175e-07  
  1.0720e-09    3.949e-07  
  1.0725e-09    3.857e-07  
  1.0730e-09    3.806e-07  
  1.0735e-09    3.617e-07  
  1.0740e-09    3.591e-07  
  1.0745e-09    3.666e-07  
  1.0750e-09    3.532e-07  
  1.0755e-09    3.477e-07  
  1.0760e-09    3.428e-07  
  1.0765e-09    3.399e-07  
  1.0770e-09    3.295e-07  
  1.0775e-09    3.311e-07  
  1.0780e-09    3.275e-07  
  1.0785e-09    3.285e-07  
  1.0790e-09    3.127e-07  
  1.0795e-09    3.148e-07  
  1.0800e-09    3.126e-07  
  1.0805e-09    3.132e-07  
  1.0810e-09    2.993e-07  
  1.0815e-09    2.954e-07  
  1.0820e-09    2.979e-07  
  1.0825e-09    2.943e-07  
  1.0830e-09    2.884e-07  
  1.0835e-09    2.882e-07  
  1.0840e-09    3.006e-07  
  1.0845e-09    2.879e-07  
  1.0850e-09    2.765e-07  
  1.0855e-09    2.709e-07  
  1.0860e-09    2.742e-07  
  1.0865e-09    2.695e-07  
  1.0870e-09    2.670e-07  
  1.0875e-09    2.639e-07  
  1.0880e-09    2.598e-07  
  1.0885e-09    2.650e-07  
  1.0890e-09    2.580e-07  
  1.0895e-09    2.546e-07  
  1.0900e-09    2.535e-07  
  1.0905e-09    2.543e-07  
  1.0910e-09    2.418e-07  
  1.0915e-09    2.554e-07  
  1.0920e-09    2.502e-07  
  1.0925e-09    2.545e-07  
  1.0930e-09    2.340e-07  
  1.0935e-09    2.474e-07  
  1.0940e-09    2.336e-07  
  1.0945e-09    2.420e-07  
  1.0950e-09    2.257e-07  
  1.0955e-09    2.498e-07  
  1.0960e-09    2.279e-07  
  1.0965e-09    2.305e-07  
  1.0970e-09    2.225e-07  
  1.0975e-09    2.336e-07  
  1.0980e-09    2.279e-07  
  1.0985e-09    2.288e-07  
  1.0990e-09    2.266e-07  
  1.0995e-09    2.277e-07  
  1.1000e-09    2.237e-07  
  1.1005e-09    2.371e-07  
  1.1010e-09    2.137e-07  
  1.1015e-09    2.177e-07  
  1.1020e-09    1.971e-07  
  1.1025e-09    2.251e-07  
  1.1030e-09    2.007e-07  
  1.1035e-09    2.092e-07  
  1.1040e-09    2.039e-07  
  1.1045e-09    2.115e-07  
  1.1050e-09    1.989e-07  
  1.1055e-09    2.139e-07  
  1.1060e-09    2.093e-07  
  1.1065e-09    1.879e-07  
  1.1070e-09    2.113e-07  
  1.1075e-09    1.930e-07  
  1.1080e-09    1.997e-07  
  1.1085e-09    1.952e-07  
  1.1090e-09    1.981e-07  
  1.1095e-09    1.795e-07  
  1.1100e-09    2.077e-07  
  1.1105e-09    1.885e-07  
  1.1110e-09    1.927e-07  
  1.1115e-09    1.955e-07  
  1.1120e-09    1.942e-07  
  1.1125e-09    1.767e-07  
  1.1130e-09    2.003e-07  
  1.1135e-09    1.842e-07  
  1.1140e-09    1.872e-07  
  1.1145e-09    1.857e-07  
  1.1150e-09    1.763e-07  
  1.1155e-09    1.840e-07  
  1.1160e-09    1.898e-07  
  1.1165e-09    1.812e-07  
  1.1170e-09    1.828e-07  
  1.1175e-09    1.696e-07  
  1.1180e-09    1.816e-07  
  1.1185e-09    1.747e-07  
  1.1190e-09    1.706e-07  
  1.1195e-09    1.810e-07  
  1.1200e-09    1.732e-07  
  1.1205e-09    1.653e-07  
  1.1210e-09    1.830e-07  
  1.1215e-09    1.645e-07  
  1.1220e-09    1.715e-07  
  1.1225e-09    1.687e-07  
  1.1230e-09    1.756e-07  
  1.1235e-09    1.561e-07  
  1.1240e-09    1.777e-07  
  1.1245e-09    1.629e-07  
  1.1250e-09    1.529e-07  
  1.1255e-09    1.596e-07  
  1.1260e-09    1.677e-07  
  1.1265e-09    1.552e-07  
  1.1270e-09    1.716e-07  
  1.1275e-09    1.430e-07  
  1.1280e-09    1.656e-07  
  1.1285e-09    1.559e-07  
  1.1290e-09    1.567e-07  
  1.1295e-09    1.437e-07  
  1.1300e-09    1.621e-07  
  1.1305e-09    1.472e-07  
  1.1310e-09    1.597e-07  
  1.1315e-09    1.439e-07  
  1.1320e-09    1.600e-07  
  1.1325e-09    1.429e-07  
  1.1330e-09    1.545e-07  
  1.1335e-09    1.447e-07  
  1.1340e-09    1.538e-07  
  1.1345e-09    1.414e-07  
  1.1350e-09    1.528e-07  
  1.1355e-09    1.429e-07  
  1.1360e-09    1.523e-07  
  1.1365e-09    1.429e-07  
  1.1370e-09    1.467e-07  
  1.1375e-09    1.374e-07  
  1.1380e-09    1.487e-07  
  1.1385e-09    1.412e-07  
  1.1390e-09    1.458e-07  
  1.1395e-09    1.373e-07  
  1.1400e-09    1.464e-07  
  1.1405e-09    1.307e-07  
  1.1410e-09    1.446e-07  
  1.1415e-09    1.354e-07  
  1.1420e-09    1.418e-07  
  1.1425e-09    1.341e-07  
  1.1430e-09    1.424e-07  
  1.1435e-09    1.327e-07  
  1.1440e-09    1.411e-07  
  1.1445e-09    1.320e-07  
  1.1450e-09    1.384e-07  
  1.1455e-09    1.328e-07  
  1.1460e-09    1.365e-07  
  1.1465e-09    1.304e-07  
  1.1470e-09    1.378e-07  
  1.1475e-09    1.310e-07  
  1.1480e-09    1.350e-07  
  1.1485e-09    1.275e-07  
  1.1490e-09    1.355e-07  
  1.1495e-09    1.209e-07  
  1.1500e-09    1.340e-07  
  1.1505e-09    1.255e-07  
  1.1510e-09    1.256e-07  
  1.1515e-09    1.258e-07  
  1.1520e-09    1.326e-07  
  1.1525e-09    1.234e-07  
  1.1530e-09    1.308e-07  
  1.1535e-09    1.255e-07  
  1.1540e-09    1.257e-07  
  1.1545e-09    1.245e-07  
  1.1550e-09    1.229e-07  
  1.1555e-09    1.160e-07  
  1.1560e-09    1.305e-07  
  1.1565e-09    1.221e-07  
  1.1570e-09    1.238e-07  
  1.1575e-09    1.274e-07  
[...]
  2.6775e-09    7.402e-08  
  2.6780e-09    8.014e-08  
  2.6785e-09    7.379e-08  
  2.6790e-09    8.267e-08  
  2.6795e-09    8.195e-08  
  2.6800e-09    7.685e-08  
  2.6805e-09    7.688e-08  
  2.6810e-09    8.004e-08  
  2.6815e-09    7.275e-08  
  2.6820e-09    8.477e-08  
  2.6825e-09    7.354e-08  
  2.6830e-09    7.967e-08  
  2.6835e-09    7.328e-08  
  2.6840e-09    7.952e-08  
  2.6845e-09    7.700e-08  
  2.6850e-09    7.862e-08  
  2.6855e-09    7.653e-08  
  2.6860e-09    7.955e-08  
  2.6865e-09    7.634e-08  
  2.6870e-09    7.791e-08  
  2.6875e-09    7.517e-08  
  2.6880e-09    7.922e-08  
  2.6885e-09    7.623e-08  
  2.6890e-09    8.158e-08  
  2.6895e-09    7.836e-08  
  2.6900e-09    7.401e-08  
  2.6905e-09    7.577e-08  
  2.6910e-09    7.894e-08  
  2.6915e-09    7.573e-08  
  2.6920e-09    8.365e-08  
  2.6925e-09    6.847e-08  
  2.6930e-09    7.735e-08  
  2.6935e-09    7.553e-08  
  2.6940e-09    7.847e-08  
  2.6945e-09    7.799e-08  
  2.6950e-09    7.530e-08  
  2.6955e-09    7.362e-08  
  2.6960e-09    7.833e-08  
  2.6965e-09    7.168e-08  
  2.6970e-09    8.022e-08  
  2.6975e-09    7.514e-08  
  2.6980e-09    7.645e-08  
  2.6985e-09    8.277e-08  
  2.6990e-09    7.947e-08  
  2.6995e-09    8.073e-08  
  2.7000e-09    7.641e-08  
  2.7005e-09    7.791e-08  
  2.7010e-09    7.782e-08  
  2.7015e-09    7.776e-08  
  2.7020e-09    8.436e-08  
  2.7025e-09    7.120e-08  
  2.7030e-09    7.925e-08  
  2.7035e-09    7.387e-08  
  2.7040e-09    8.151e-08  
  2.7045e-09    7.995e-08  
  2.7050e-09    7.579e-08  
  2.7055e-09    7.742e-08  
  2.7060e-09    7.913e-08  
  2.7065e-09    7.158e-08  
  2.7070e-09    8.140e-08  
  2.7075e-09    7.431e-08  
  2.7080e-09    8.098e-08  
  2.7085e-09    7.710e-08  
  2.7090e-09    7.884e-08  
  2.7095e-09    7.146e-08  
  2.7100e-09    7.551e-08  
  2.7105e-09    7.698e-08  
  2.7110e-09    8.074e-08  
  2.7115e-09    7.692e-08  
  2.7120e-09    7.779e-08  
  2.7125e-09    6.567e-08  
  2.7130e-09    7.811e-08  
  2.7135e-09    7.687e-08  
  2.7140e-09    7.831e-08  
  2.7145e-09    7.907e-08  
  2.7150e-09    7.509e-08  
  2.7155e-09    7.053e-08  
  2.7160e-09    7.433e-08  
  2.7165e-09    7.624e-08  
  2.7170e-09    7.361e-08  
  2.7175e-09    7.869e-08  
  2.7180e-09    7.763e-08  
  2.7185e-09    6.830e-08  
  2.7190e-09    7.749e-08  
  2.7195e-09    7.586e-08  
  2.7200e-09    7.694e-08  
  2.7205e-09    7.595e-08  
  2.7210e-09    7.976e-08  
  2.7215e-09    6.470e-08  
  2.7220e-09    7.622e-08  
  2.7225e-09    7.186e-08  
  2.7230e-09    7.710e-08  
  2.7235e-09    7.810e-08  
  2.7240e-09    7.736e-08  
  2.7245e-09    6.781e-08  
  2.7250e-09    7.709e-08  
  2.7255e-09    7.496e-08  
  2.7260e-09    7.923e-08  
  2.7265e-09    7.510e-08  
  2.7270e-09    7.724e-08  
  2.7275e-09    6.755e-08  
  2.7280e-09    6.170e-08  
  2.7285e-09    7.514e-08  
  2.7290e-09    7.681e-08  
  2.7295e-09    7.536e-08  
  2.7300e-09    7.666e-08  
  2.7305e-09    6.711e-08  
  2.7310e-09    7.470e-08  
  2.7315e-09    7.500e-08  
  2.7320e-09    7.672e-08  
  2.7325e-09    7.510e-08  
  2.7330e-09    7.638e-08  
  2.7335e-09    6.485e-08  
  2.7340e-09    7.616e-08  
  2.7345e-09    7.492e-08  
  2.7350e-09    7.621e-08  
  2.7355e-09    7.472e-08  
  2.7360e-09    7.826e-08  
  2.7365e-09    6.180e-08  
  2.7370e-09    7.558e-08  
  2.7375e-09    7.445e-08  
  2.7380e-09    7.579e-08  
  2.7385e-09    7.678e-08  
  2.7390e-09    7.625e-08  
  2.7395e-09    6.806e-08  
  2.7400e-09    7.424e-08  
  2.7405e-09    7.569e-08  
  2.7410e-09    7.882e-08  
  2.7415e-09    7.827e-08  
  2.7420e-09    6.610e-08  
  2.7425e-09    6.614e-08  
  2.7430e-09    7.576e-08  
  2.7435e-09    7.627e-08  
  2.7440e-09    7.816e-08  
  2.7445e-09    7.323e-08  
  2.7450e-09    6.973e-08  
  2.7455e-09    7.009e-08  
  2.7460e-09    7.574e-08  
  2.7465e-09    7.557e-08  
  2.7470e-09    7.662e-08  
  2.7475e-09    6.942e-08  
  2.7480e-09    6.926e-08  
  2.7485e-09    6.682e-08  
  2.7490e-09    7.352e-08  
  2.7495e-09    7.348e-08  
  2.7500e-09    7.547e-08  
  2.7505e-09    7.197e-08  
  2.7510e-09    7.118e-08  
  2.7515e-09    6.556e-08  
  2.7520e-09    7.378e-08  
  2.7525e-09    7.317e-08  
  2.7530e-09    7.328e-08  
  2.7535e-09    7.722e-08  
  2.7540e-09    6.877e-08  
  2.7545e-09    6.772e-08  
  2.7550e-09    7.432e-08  
  2.7555e-09    7.303e-08  
  2.7560e-09    7.503e-08  
  2.7565e-09    7.144e-08  
  2.7570e-09    6.888e-08  
  2.7575e-09    6.504e-08  
  2.7580e-09    7.382e-08  
  2.7585e-09    7.500e-08  
  2.7590e-09    6.931e-08  
  2.7595e-09    7.174e-08  
  2.7600e-09    6.881e-08  
  2.7605e-09    6.863e-08  
  2.7610e-09    7.640e-08  
  2.7615e-09    7.289e-08  
  2.7620e-09    7.245e-08  
  2.7625e-09    6.852e-08  
  2.7630e-09    6.846e-08  
  2.7635e-09    7.044e-08  
  2.7640e-09    7.386e-08  
  2.7645e-09    6.919e-08  
  2.7650e-09    7.209e-08  
  2.7655e-09    7.150e-08  
  2.7660e-09    7.042e-08  
  2.7665e-09    7.203e-08  
  2.7670e-09    7.594e-08  
  2.7675e-09    7.233e-08  
  2.7680e-09    7.194e-08  
  2.7685e-09    7.537e-08  
  2.7690e-09    6.804e-08  
  2.7695e-09    7.183e-08  
  2.7700e-09    7.294e-08  
  2.7705e-09    7.205e-08  
  2.7710e-09    7.387e-08  
  2.7715e-09    7.106e-08  
  2.7720e-09    6.795e-08  
  2.7725e-09    7.159e-08  
  2.7730e-09    7.787e-08  
  2.7735e-09    7.394e-08  
  2.7740e-09    7.164e-08  
  2.7745e-09    7.088e-08  
  2.7750e-09    6.778e-08  
  2.7755e-09    6.799e-08  
  2.7760e-09    7.773e-08  
  2.7765e-09    7.182e-08  
  2.7770e-09    7.136e-08  
  2.7775e-09    7.027e-08  
  2.7780e-09    6.785e-08  
  2.7785e-09    6.792e-08  
  2.7790e-09    7.472e-08  
  2.7795e-09    7.145e-08  
  2.7800e-09    7.107e-08  
  2.7805e-09    7.022e-08  
  2.7810e-09    6.389e-08  
  2.7815e-09    7.284e-08  
  2.7820e-09    7.707e-08  
  2.7825e-09    7.124e-08  
  2.7830e-09    7.095e-08  
  2.7835e-09    7.009e-08  
  2.7840e-09    6.382e-08  
  2.7845e-09    7.051e-08  
  2.7850e-09    7.446e-08  
  2.7855e-09    7.111e-08  
  2.7860e-09    7.064e-08  
  2.7865e-09    6.644e-08  
  2.7870e-09    7.105e-08  
  2.7875e-09    7.044e-08  
  2.7880e-09    7.419e-08  
  2.7885e-09    7.085e-08  
  2.7890e-09    7.048e-08  
  2.7895e-09    6.633e-08  
  2.7900e-09    6.666e-08  
  2.7905e-09    7.031e-08  
  2.7910e-09    7.415e-08  
  2.7915e-09    7.055e-08  
  2.7920e-09    6.905e-08  
  2.7925e-09    7.124e-08  
  2.7930e-09    7.063e-08  
  2.7935e-09    7.304e-08  
  2.7940e-09    7.694e-08  
  2.7945e-09    6.905e-08  
  2.7950e-09    6.671e-08  
  2.7955e-09    7.111e-08  
  2.7960e-09    6.613e-08  
  2.7965e-09    7.015e-08  
  2.7970e-09    7.306e-08  
  2.7975e-09    6.976e-08  
  2.7980e-09    6.686e-08  
  2.7985e-09    6.983e-08  
  2.7990e-09    6.984e-08  
  2.7995e-09    7.111e-08  
  2.8000e-09    7.443e-08  
  2.8005e-09    6.955e-08  
  2.8010e-09    6.540e-08  
  2.8015e-09    6.972e-08  
  2.8020e-09    6.954e-08  
  2.8025e-09    7.444e-08  
  2.8030e-09    7.443e-08  
  2.8035e-09    6.967e-08  
  2.8040e-09    6.632e-08  
  2.8045e-09    6.878e-08  
  2.8050e-09    6.980e-08  
  2.8055e-09    7.751e-08  
  2.8060e-09    7.343e-08  
  2.8065e-09    6.922e-08  
  2.8070e-09    6.588e-08  
  2.8075e-09    7.136e-08  
  2.8080e-09    6.862e-08  
  2.8085e-09    7.217e-08  
  2.8090e-09    7.352e-08  
  2.8095e-09    6.908e-08  
  2.8100e-09    6.609e-08  
  2.8105e-09    6.889e-08  
  2.8110e-09    7.149e-08  
  2.8115e-09    7.085e-08  
  2.8120e-09    7.833e-08  
  2.8125e-09    6.889e-08  
  2.8130e-09    6.563e-08  
  2.8135e-09    6.852e-08  
  2.8140e-09    6.871e-08  
  2.8145e-09    7.126e-08  
  2.8150e-09    6.271e-08  
  2.8155e-09    6.816e-08  
  2.8160e-09    6.772e-08  
  2.8165e-09    6.842e-08  
  2.8170e-09    7.142e-08  
  2.8175e-09    7.068e-08  
  2.8180e-09    6.841e-08  
  2.8185e-09    6.366e-08  
  2.8190e-09    6.533e-08  
  2.8195e-09    7.052e-08  
  2.8200e-09    6.824e-08  
  2.8205e-09    6.757e-08  
  2.8210e-09    6.805e-08  
  2.8215e-09    6.819e-08  
  2.8220e-09    6.672e-08  
  2.8225e-09    7.064e-08  
  2.8230e-09    6.819e-08  
  2.8235e-09    7.068e-08  
  2.8240e-09    6.824e-08  
  2.8245e-09    6.796e-08  
  2.8250e-09    6.084e-08  
  2.8255e-09    6.527e-08  
  2.8260e-09    6.820e-08  
  2.8265e-09    7.294e-08  
  2.8270e-09    6.782e-08  
  2.8275e-09    6.784e-08  
  2.8280e-09    6.465e-08  
  2.8285e-09    6.379e-08  
  2.8290e-09    6.928e-08  
  2.8295e-09    6.979e-08  
  2.8300e-09    6.791e-08  
  2.8305e-09    6.769e-08  
  2.8310e-09    6.121e-08  
  2.8315e-09    6.740e-08  
  2.8320e-09    5.971e-08  
  2.8325e-09    6.939e-08  
  2.8330e-09    6.783e-08  
  2.8335e-09    6.746e-08  
  2.8340e-09    6.404e-08  
  2.8345e-09    6.745e-08  
  2.8350e-09    6.739e-08  
  2.8355e-09    5.870e-08  
  2.8360e-09    6.952e-08  
  2.8365e-09    6.636e-08  
  2.8370e-09    6.642e-08  
  2.8375e-09    6.780e-08  
  2.8380e-09    6.735e-08  
  2.8385e-09    6.643e-08  
  2.8390e-09    5.891e-08  
  2.8395e-09    6.702e-08  
  2.8400e-09    6.329e-08  
  2.8405e-09    6.502e-08  
  2.8410e-09    6.728e-08  
  2.8415e-09    5.941e-08  
  2.8420e-09    6.678e-08  
  2.8425e-09    5.955e-08  
  2.8430e-09    6.347e-08  
  2.8435e-09    6.682e-08  
  2.8440e-09    6.590e-08  
  2.8445e-09    6.673e-08  
  2.8450e-09    6.923e-08  
  2.8455e-09    6.677e-08  
  2.8460e-09    5.617e-08  
  2.8465e-09    6.293e-08  
  2.8470e-09    6.659e-08  
  2.8475e-09    6.906e-08  
  2.8480e-09    6.246e-08  
  2.8485e-09    6.611e-08  
  2.8490e-09    6.353e-08  
  2.8495e-09    5.853e-08  
  2.8500e-09    6.655e-08  
  2.8505e-09    6.640e-08  
  2.8510e-09    6.573e-08  
  2.8515e-09    6.890e-08  
  2.8520e-09    5.998e-08  
  2.8525e-09    6.612e-08  
  2.8530e-09    5.862e-08  
  2.8535e-09    6.621e-08  
  2.8540e-09    6.620e-08  
  2.8545e-09    6.198e-08  
  2.8550e-09    6.560e-08  
  2.8555e-09    6.829e-08  
  2.8560e-09    6.844e-08  
  2.8565e-09    5.844e-08  
  2.8570e-09    6.605e-08  
  2.8575e-09    6.613e-08  
  2.8580e-09    6.113e-08  
  2.8585e-09    6.562e-08  
  2.8590e-09    6.614e-08  
  2.8595e-09    6.599e-08  
  2.8600e-09    5.815e-08  
  2.8605e-09    6.589e-08  
  2.8610e-09    6.608e-08  
  2.8615e-09    6.354e-08  
  2.8620e-09    6.580e-08  
  2.8625e-09    6.579e-08  
  2.8630e-09    6.824e-08  
  2.8635e-09    5.795e-08  
  2.8640e-09    6.567e-08  
  2.8645e-09    7.021e-08  
  2.8650e-09    6.169e-08  
  2.8655e-09    6.564e-08  
  2.8660e-09    6.577e-08  
  2.8665e-09    6.564e-08  
  2.8670e-09    5.789e-08  
  2.8675e-09    6.768e-08  
  2.8680e-09    6.803e-08  
  2.8685e-09    6.128e-08  
  2.8690e-09    6.551e-08  
  2.8695e-09    6.516e-08  
  2.8700e-09    6.239e-08  
  2.8705e-09    5.768e-08  
  2.8710e-09    6.533e-08  
  2.8715e-09    6.535e-08  
  2.8720e-09    6.121e-08  
  2.8725e-09    6.514e-08  
  2.8730e-09    6.765e-08  
  2.8735e-09    6.404e-08  
  2.8740e-09    5.761e-08  
  2.8745e-09    6.516e-08  
  2.8750e-09    6.523e-08  
  2.8755e-09    6.128e-08  
  2.8760e-09    6.523e-08  
  2.8765e-09    6.720e-08  
  2.8770e-09    6.521e-08  
  2.8775e-09    5.750e-08  
  2.8780e-09    6.742e-08  
  2.8785e-09    6.490e-08  
  2.8790e-09    6.092e-08  
  2.8795e-09    6.691e-08  
  2.8800e-09    6.512e-08  
  2.8805e-09    6.492e-08  
  2.8810e-09    6.108e-08  
  2.8815e-09    6.716e-08  
  2.8820e-09    6.492e-08  
  2.8825e-09    6.278e-08  
  2.8830e-09    6.921e-08  
  2.8835e-09    6.462e-08  
  2.8840e-09    6.493e-08  
  2.8845e-09    5.716e-08  
  2.8850e-09    6.467e-08  
  2.8855e-09    6.682e-08  
  2.8860e-09    6.077e-08  
  2.8865e-09    6.452e-08  
  2.8870e-09    6.466e-08  
  2.8875e-09    6.460e-08  
  2.8880e-09    6.911e-08  
  2.8885e-09    7.127e-08  
  2.8890e-09    6.474e-08  
  2.8895e-09    6.054e-08  
  2.8900e-09    6.463e-08  
  2.8905e-09    6.450e-08  
  2.8910e-09    6.449e-08  
  2.8915e-09    5.891e-08  
  2.8920e-09    6.447e-08  
  2.8925e-09    6.434e-08  
  2.8930e-09    5.377e-08  
  2.8935e-09    6.389e-08  
  2.8940e-09    6.457e-08  
  2.8945e-09    6.642e-08  
  2.8950e-09    6.439e-08  
  2.8955e-09    6.871e-08  
  2.8960e-09    6.445e-08  
  2.8965e-09    6.011e-08  
  2.8970e-09    6.415e-08  
  2.8975e-09    6.625e-08  
  2.8980e-09    6.426e-08  
  2.8985e-09    6.409e-08  
  2.8990e-09    6.530e-08  
  2.8995e-09    6.611e-08  
  2.9000e-09    6.018e-08  
  2.9005e-09    6.595e-08  
  2.9010e-09    6.416e-08  
  2.9015e-09    6.406e-08  
  2.9020e-09    6.412e-08  
  2.9025e-09    6.850e-08  
  2.9030e-09    6.395e-08  
  2.9035e-09    6.199e-08  
  2.9040e-09    6.404e-08  
  2.9045e-09    6.075e-08  
  2.9050e-09    6.047e-08  
  2.9055e-09    6.380e-08  
  2.9060e-09    6.888e-08  
  2.9065e-09    6.588e-08  
  2.9070e-09    6.387e-08  
  2.9075e-09    6.637e-08  
  2.9080e-09    6.377e-08  
  2.9085e-09    6.369e-08  
  2.9090e-09    6.371e-08  
  2.9095e-09    7.044e-08  
  2.9100e-09    6.256e-08  
  2.9105e-09    5.989e-08  
  2.9110e-09    6.232e-08  
  2.9115e-09    6.344e-08  
  2.9120e-09    6.240e-08  
  2.9125e-09    6.591e-08  
  2.9130e-09    6.802e-08  
  2.9135e-09    6.355e-08  
  2.9140e-09    6.216e-08  
  2.9145e-09    6.627e-08  
  2.9150e-09    6.350e-08  
  2.9155e-09    6.555e-08  
  2.9160e-09    5.890e-08  
  2.9165e-09    6.807e-08  
  2.9170e-09    6.346e-08  
  2.9175e-09    6.190e-08  
  2.9180e-09    6.178e-08  
  2.9185e-09    6.567e-08  
  2.9190e-09    6.343e-08  
  2.9195e-09    6.339e-08  
  2.9200e-09    6.638e-08  
  2.9205e-09    6.349e-08  
  2.9210e-09    6.321e-08  
  2.9215e-09    6.795e-08  
  2.9220e-09    6.188e-08  
  2.9225e-09    6.795e-08  
  2.9230e-09    6.304e-08  
  2.9235e-09    6.777e-08  
  2.9240e-09    6.181e-08  
  2.9245e-09    6.515e-08  
  2.9250e-09    6.593e-08  
  2.9255e-09    6.318e-08  
  2.9260e-09    6.171e-08  
  2.9265e-09    6.334e-08  
  2.9270e-09    6.743e-08  
  2.9275e-09    5.330e-08  
  2.9280e-09    6.135e-08  
  2.9285e-09    6.588e-08  
  2.9290e-09    6.290e-08  
  2.9295e-09    6.298e-08  
  2.9300e-09    6.154e-08  
  2.9305e-09    6.742e-08  
  2.9310e-09    6.488e-08  
  2.9315e-09    6.290e-08  
  2.9320e-09    6.398e-08  
  2.9325e-09    6.300e-08  
  2.9330e-09    6.275e-08  
  2.9335e-09    6.276e-08  
  2.9340e-09    6.180e-08  
  2.9345e-09    6.260e-08  
  2.9350e-09    6.284e-08  
  2.9355e-09    6.532e-08  
  2.9360e-09    6.135e-08  
  2.9365e-09    6.289e-08  
  2.9370e-09    6.263e-08  
  2.9375e-09    6.340e-08  
  2.9380e-09    6.120e-08  
  2.9385e-09    6.274e-08  
  2.9390e-09    6.172e-08  
  2.9395e-09    6.243e-08  
  2.9400e-09    6.114e-08  
  2.9405e-09    5.940e-08  
  2.9410e-09    6.105e-08  
  2.9415e-09    6.240e-08  
  2.9420e-09    6.106e-08  
  2.9425e-09    6.121e-08  
  2.9430e-09    6.222e-08  
  2.9435e-09    6.230e-08  
  2.9440e-09    6.088e-08  
  2.9445e-09    5.925e-08  
  2.9450e-09    6.212e-08  
  2.9455e-09    6.463e-08  
  2.9460e-09    6.532e-08  
  2.9465e-09    5.850e-08  
  2.9470e-09    5.878e-08  
  2.9475e-09    6.205e-08  
  2.9480e-09    5.761e-08  
  2.9485e-09    6.224e-08  
  2.9490e-09    6.210e-08  
  2.9495e-09    6.676e-08  
  2.9500e-09    6.069e-08  
  2.9505e-09    5.487e-08  
  2.9510e-09    6.160e-08  
  2.9515e-09    5.892e-08  
  2.9520e-09    6.053e-08  
  2.9525e-09    6.220e-08  
  2.9530e-09    6.045e-08  
  2.9535e-09    5.875e-08  
  2.9540e-09    6.043e-08  
  2.9545e-09    5.820e-08  
  2.9550e-09    5.866e-08  
  2.9555e-09    6.179e-08  
  2.9560e-09    6.048e-08  
  2.9565e-09    6.453e-08  
  2.9570e-09    6.023e-08  
  2.9575e-09    6.164e-08  
  2.9580e-09    6.044e-08  
  2.9585e-09    5.491e-08  
  2.9590e-09    6.150e-08  
  2.9595e-09    6.173e-08  
  2.9600e-09    5.973e-08  
  2.9605e-09    6.181e-08  
  2.9610e-09    5.772e-08  
  2.9615e-09    6.163e-08  
  2.9620e-09    5.376e-08  
  2.9625e-09    5.776e-08  
  2.9630e-09    6.165e-08  
  2.9635e-09    6.406e-08  
  2.9640e-09    6.156e-08  
  2.9645e-09    6.218e-08  
  2.9650e-09    5.752e-08  
  2.9655e-09    5.835e-08  
  2.9660e-09    6.134e-08  
  2.9665e-09    5.310e-08  
  2.9670e-09    6.390e-08  
  2.9675e-09    6.146e-08  
  2.9680e-09    6.141e-08  
  2.9685e-09    6.365e-08  
  2.9690e-09    5.470e-08  
  2.9695e-09    6.125e-08  
  2.9700e-09    6.138e-08  
  2.9705e-09    5.331e-08  
  2.9710e-09    5.999e-08  
  2.9715e-09    6.147e-08  
  2.9720e-09    6.121e-08  
  2.9725e-09    5.814e-08  
  2.9730e-09    5.403e-08  
  2.9735e-09    5.833e-08  
  2.9740e-09    6.108e-08  
  2.9745e-09    5.325e-08  
  2.9750e-09    6.100e-08  
  2.9755e-09    5.987e-08  
  2.9760e-09    5.825e-08  
  2.9765e-09    6.098e-08  
  2.9770e-09    5.717e-08  
  2.9775e-09    6.097e-08  
  2.9780e-09    6.155e-08  
  2.9785e-09    5.298e-08  
  2.9790e-09    5.764e-08  
  2.9795e-09    5.775e-08  
  2.9800e-09    6.390e-08  
  2.9805e-09    6.153e-08  
  2.9810e-09    5.703e-08  
  2.9815e-09    6.090e-08  
  2.9820e-09    6.087e-08  
  2.9825e-09    5.347e-08  
  2.9830e-09    6.065e-08  
  2.9835e-09    6.080e-08  
  2.9840e-09    6.075e-08  
  2.9845e-09    5.947e-08  
  2.9850e-09    5.700e-08  
  2.9855e-09    6.279e-08  
  2.9860e-09    6.012e-08  
  2.9865e-09    5.295e-08  
  2.9870e-09    6.099e-08  
  2.9875e-09    5.749e-08  
  2.9880e-09    6.057e-08  
  2.9885e-09    6.064e-08  
  2.9890e-09    5.549e-08  
  2.9895e-09    5.730e-08  
  2.9900e-09    6.044e-08  
  2.9905e-09    5.273e-08  
  2.9910e-09    5.716e-08  
  2.9915e-09    6.093e-08  
  2.9920e-09    6.054e-08  
  2.9925e-09    6.051e-08  
  2.9930e-09    5.663e-08  
  2.9935e-09    5.917e-08  
  2.9940e-09    6.063e-08  
  2.9945e-09    5.254e-08  
  2.9950e-09    6.023e-08  
  2.9955e-09    5.719e-08  
  2.9960e-09    5.740e-08  
  2.9965e-09    6.026e-08  
  2.9970e-09    5.658e-08  
  2.9975e-09    6.030e-08  
  2.9980e-09    6.120e-08  
  2.9985e-09    5.631e-08  
  2.9990e-09    6.259e-08  
  2.9995e-09    6.245e-08  
  3.0000e-09    6.033e-08  
y

          ***** job concluded
1****** HSPICE -- F-2011.09 32-BIT (Sep  5 2011) linux ******                   
 ******  
 

  ******  job statistics summary tnom=  25.000 temp=  25.000 *****
  
  
 ******  Machine Information  ******
 CPU:
 model name	: Intel(R) Core(TM)2 Quad CPU    Q9550  @ 2.83GHz
 cpu MHz	: 2826.064
  
 OS:
 Linux version 3.16.0-4-amd64 (debian-kernel@lists.debian.org) (gcc version 4.8.
 4 (Debian 4.8.4-1) ) #1 SMP Debian 3.16.7-ckt11-1+deb8u5 (2015-10-09)


  ******  HSPICE Threads Information  ******

  Command Line Threads Count :     1
  Available CPU Count        :     4
  Actual Threads Count       :     1


  ******  Circuit Statistics  ******
  # nodes       =     211 # elements   =      54
  # resistors   =       1 # capacitors =       0 # inductors   =       0
  # mutual_inds =       0 # vccs       =       0 # vcvs        =       0
  # cccs        =       0 # ccvs       =       0 # volt_srcs   =       5
  # curr_srcs   =       4 # diodes     =       0 # bjts        =       0
  # jfets       =       0 # mosfets    =      44 # U elements  =       0
  # T elements  =       0 # W elements =       0 # B elements  =       0
  # S elements  =       0 # P elements =       0 # va device   =       0
  # vector_srcs =       0


  ******  Runtime Statistics (seconds)  ******

  analysis           time    # points   tot. iter  conv.iter
  op point           0.06           1         260
  transient          2.12        5997       24202       12076 rev=        13
  readin             0.08
  errchk             0.02
  setup              0.00
  output             0.00


           peak memory used         89.45 megabytes
           total cpu time            2.28 seconds
           total elapsed time        2.51 seconds
           job started at     13:57:12 05/02/2016
           job ended   at     13:57:15 05/02/2016


 lic: Release hspice token(s) 
