Using: /usr/bin/time -p /synopsys/HSPICE/hspice/linux/hspice millerchar.sp
 ****** HSPICE -- F-2011.09 32-BIT (Sep  5 2011) linux ******                   
  Copyright (C) 2011 Synopsys, Inc. All Rights Reserved.                        
  Unpublished-rights reserved under US copyright laws.
  This program is protected by law and is subject to the
  terms and conditions of the license agreement from Synopsys.
  Use of this program is your acceptance to be bound by the
  license agreement. HSPICE is the trademark of Synopsys, Inc.
  Input File: millerchar.sp                                                     
  Command line options: millerchar.sp
 lic: No 'setenv LM_LICENSE_FILE' in current environment' 
 lic:  
 lic: FLEXlm: v10.8 
 lic: USER:   watkins              HOSTNAME: engr-e132-d10 
 lic: HOSTID: 002564bd04da         PID:      11599 
 lic: Using FLEXlm license file: 
 lic: 28000@131.230.191.194 
 lic: Checkout 1 hspice 
 lic: License/Maintenance for hspice will expire on 30-dec-2015/2015.06 
 lic: 1(in_use)/50(total) FLOATING license(s) on SERVER 131.230.191.194 
 lic:   
 Init: read install configuration file: /synopsys/HSPICE/hspice/meta.cfg
1****** HSPICE -- F-2011.09 32-BIT (Sep  5 2011) linux ******                   
 ******  
 $ miller capacitance characterization

  ******  mos   model parameters tnom=  25.000 temp=  25.000 *****
 Model Name: cmosn  
 BSIM4 Model (Level 54)
    MOBMOD = 0
    BINUNIT = 1
    PARAMCHK = 1
    CAPMOD = 2
    DIOMOD = 1
    RDSMOD = 0
    TRNQSMOD = 0
    ACNQSMOD = 0
    RBODYMOD = 1
    RGATEMOD = 1
    PERMOD = 1
    GEOMOD = 1
    RGEOMOD = 0
    FNOIMOD = 1
    TNOIMOD = 0
    IGCMOD = 1
    IGBMOD = 1
    STIMOD = 0
    VERSION =      4 
    TOXREF = 1.15e-09 
    TOXE = 1.15e-09 
    TOXP =  9e-10 
    TOXM = 1.15e-09 
    DTOX = 2.5e-10 
    EPSROX =    3.9 
    CDSC =      0 
    CDSCB =      0 
    CDSCD =      0 
    CIT =      0 
    NFACTOR =  2.508 
    XJ =  1e-08 
    VSAT = 2.1e+05 
    A0 =      1 
    AGS =      0 
    A1 =      0 
    A2 =      1 
    AT = 3.3e+04 
    KETA =   0.04 
    NSUB =  6e+16 
    NDEP = 4.12e+18 
    NSD =  2e+20 
    NGATE =  1e+23 
    GAMMA1 =      0 
    GAMMA2 =      0 
    VBX =      0 
    VBM =     -3 
    XT = 1.55e-07 
    K1 =    0.4 
    KT1 =  -0.11 
    KT1L =      0 
    KT2 =  0.022 
    K2 =      0 
    K3 =      0 
    K3B =      0 
    LPE0 =      0 
    LPEB =      0 
    DVTP0 =  1e-11 
    DVTP1 =    0.1 
    W0 = 2.5e-06 
    DVT0 =      1 
    DVT1 =      2 
    DVT2 =      0 
    DVT0W =      0 
    DVT1W =      0 
    DVT2W =      0 
    DROUT =    0.5 
    DSUB =    0.1 
    VTH0 =  0.494 
    EU =   1.67 
    UA =  6e-10 
    UA1 = 4.31e-09 
    UB = 1.2e-18 
    UB1 = 7.61e-18 
    UC =      0 
    UC1 = -5.6e-11 
    U0 =   0.05 
    UTE =   -1.5 
    VOFF =  -0.13 
    VOFFL =      0 
    MINV =   0.05 
    FPROUT =    0.2 
    PDITS =   0.01 
    PDITSD =   0.23 
    PDITSL = 2.3e+06 
    DELTA =   0.01 
    RDSW =    150 
    RDSWMIN =      0 
    RDWMIN =      0 
    RSWMIN =      0 
    RDW =     75 
    RSW =     75 
    PRWG =      0 
    PRWB =      0 
    PRT =      0 
    ETA0 = 0.0048 
    ETAB =      0 
    PCLM =   0.02 
    PDIBLC1 =  0.001 
    PDIBLC2 =  0.001 
    PDIBLCB = -0.005 
    PSCBE1 = 8.14e+08 
    PSCBE2 =  1e-07 
    PVAG =  1e-20 
    WR =      1 
    DWG =      0 
    DWB =      0 
    XW =      0 
    XWREF =      0 
    XL = -1.4e-08 
    XLREF = -1.4e-08 
    B0 =      0 
    B1 =      0 
    ALPHA0 =  0.074 
    ALPHA1 =  0.005 
    AGIDL = 0.0002 
    BGIDL = 2.1e+09 
    CGIDL = 0.0002 
    PHIN =      0 
    EGIDL =    0.8 
    AIGC = 0.02001 
    BIGC = 0.002743 
    CIGC =  0.002 
    AIGSD = 0.02001 
    BIGSD = 0.002743 
    CIGSD =  0.002 
    AIGBACC =  0.012 
    BIGBACC = 0.0028 
    CIGBACC =  0.002 
    AIGBINV =  0.014 
    BIGBINV =  0.004 
    CIGBINV =  0.004 
    NIGC =      1 
    NIGBINV =      3 
    NIGBACC =      1 
    NTOX =      1 
    EIGBINV =    1.1 
    PIGCD =      1 
    POXEDGE =      1 
    XRCRG1 =     12 
    TNOIA =    1.5 
    TNOIB =    3.5 
    NTNOI =      1 
    XRCRG2 =      5 
    BETA0 =     30 
    IJTHDFWD =   0.01 
    IJTHSFWD =   0.01 
    IJTHDREV =  0.001 
    IJTHSREV =  0.001 
    XJBVD =      1 
    XJBVS =      1 
    BVD =     10 
    BVS =     10 
    VFB =  -0.55 
    GBMIN =  1e-10 
    RBDB =     15 
    RBPB =      5 
    RBSB =     15 
    RBPS =     15 
    RBPD =     15 
    CGSL = 2.653e-10 
    CGDL = 2.653e-10 
    CKAPPAS =   0.03 
    CKAPPAD =   0.03 
    CF = 1.287e-10 
    CLC =  1e-07 
    CLE =    0.6 
    DWC =  5e-09 
    DLC = 2.7e-09 
    DLCIG = 2.7e-09 
    DWJ =      0 
    VFBCV =     -1 
    ACDE =      1 
    MOIN =     15 
    NOFF =    0.9 
    VOFFCV =   0.02 
    DMCG =      0 
    DMCI =      0 
    DMDG =      0 
    DMCGT =      0 
    XGW =      0 
    XGL =      0 
    RSHG =    0.4 
    NGCON =      1 
    TCJ =  0.001 
    TPB =  0.005 
    TCJSW =  0.001 
    TPBSW =  0.005 
    TCJSWG =  0.001 
    TPBSWG =  0.005 
    SK0 =      0 
    SK1 =      0 
    SK2 =      0 
    SL =  2e-06 
    SW =  2e-06 
    K =      0 
    TNOM =  300.1 
    CGSO = 8.5e-11 
    CGDO = 8.5e-11 
    CGBO = 2.56e-11 
    XPART =      0 
    RSH =      5 
    JSS = 0.0001 
    JSWS =  1e-11 
    JSWGS =  1e-10 
    PBS =      1 
    MJS =    0.5 
    PBSWS =      1 
    MJSWS =   0.33 
    CJS = 0.0005 
    CJSWS =  5e-10 
    NJS =      1 
    PBSWGS =      1 
    MJSWGS =   0.33 
    CJSWGS =  3e-10 
    XTIS =      3 
    JSD = 0.0001 
    JSWD =  1e-11 
    JSWGD =  1e-10 
    PBD =      1 
    MJD =    0.5 
    PBSWD =      1 
    MJSWD =   0.33 
    CJD = 0.0005 
    CJSWD =  5e-10 
    NJD =      1 
    PBSWGD =      1 
    MJSWGD =   0.33 
    CJSWGD =  5e-10 
    XTID =      3 
    LMLT =      1 
    WMLT =      1 
    LINT = 2.7e-09 
    LL =      0 
    LLC =      0 
    LLN =      1 
    LW =      0 
    LWC =      0 
    LWN =      1 
    LWL =      0 
    LWLC =      0 
    LMIN =      0 
    LMAX =      1 
    WINT =  5e-09 
    WL =      0 
    WLC =      0 
    WLN =      1 
    WW =      0 
    WWC =      0 
    WWN =      1 
    WWL =      0 
    WWLC =      0 
    WMIN =      0 
    WMAX =      1 
    NOIA = 6.25e+41 
    NOIB = 3.125e+26 
    NOIC = 8.75e+09 
    EM = 4.1e+07 
    EF =      1 
    AF =      1 
    KF =      0 
    TRS =      0 
    TRD =      0 
  **info** (millerchar.sp:15) DC voltage reset to initial transient source value              in source        0:ving                new dc= -0.2000D+01
  **warning** (millerchar.sp:15) pulse ving period too small, reset to   2.0050000E-10
 **warning**(cmosn:mn1)Warning:  Acde = 0.263957 may be too small in BSIM4 model with w=4e-08 l=3.2e-08.
  

 **warning** the following singular supplies were terminated to 1 meg resistor 
   supply       node1            node2
  vdd                     0:vdd              defined in subckt 0                     0:0                defined in subckt 0               
      
 *****************************************************************
 ******  option summary
 ******
 runlvl  = 3         bypass  = 2         

   *** parameter drain =   -2.000E+00 ***


          ***** job concluded
  **warning** (millerchar.sp:15) pulse ving period too small, reset to   2.0050000E-10

   *** parameter drain =   -1.988E+00 ***


          ***** job concluded
  **warning** (millerchar.sp:15) pulse ving period too small, reset to   2.0050000E-10

   *** parameter drain =   -1.975E+00 ***


          ***** job concluded
  **warning** (millerchar.sp:15) pulse ving period too small, reset to   2.0050000E-10

   *** parameter drain =   -1.962E+00 ***


          ***** job concluded
  **warning** (millerchar.sp:15) pulse ving period too small, reset to   2.0050000E-10

   *** parameter drain =   -1.950E+00 ***


          ***** job concluded
  **warning** (millerchar.sp:15) pulse ving period too small, reset to   2.0050000E-10

   *** parameter drain =   -1.938E+00 ***


          ***** job concluded
  **warning** (millerchar.sp:15) pulse ving period too small, reset to   2.0050000E-10

   *** parameter drain =   -1.925E+00 ***


          ***** job concluded
  **warning** (millerchar.sp:15) pulse ving period too small, reset to   2.0050000E-10

   *** parameter drain =   -1.913E+00 ***


          ***** job concluded
  **warning** (millerchar.sp:15) pulse ving period too small, reset to   2.0050000E-10

   *** parameter drain =   -1.900E+00 ***


          ***** job concluded
  **warning** (millerchar.sp:15) pulse ving period too small, reset to   2.0050000E-10

   *** parameter drain =   -1.887E+00 ***


          ***** job concluded
  **warning** (millerchar.sp:15) pulse ving period too small, reset to   2.0050000E-10

   *** parameter drain =   -1.875E+00 ***


          ***** job concluded
  **warning** (millerchar.sp:15) pulse ving period too small, reset to   2.0050000E-10

   *** parameter drain =   -1.863E+00 ***


          ***** job concluded
  **warning** (millerchar.sp:15) pulse ving period too small, reset to   2.0050000E-10

   *** parameter drain =   -1.850E+00 ***


          ***** job concluded
  **warning** (millerchar.sp:15) pulse ving period too small, reset to   2.0050000E-10

   *** parameter drain =   -1.837E+00 ***


          ***** job concluded
  **warning** (millerchar.sp:15) pulse ving period too small, reset to   2.0050000E-10

   *** parameter drain =   -1.825E+00 ***


          ***** job concluded
  **warning** (millerchar.sp:15) pulse ving period too small, reset to   2.0050000E-10

   *** parameter drain =   -1.812E+00 ***


          ***** job concluded
  **warning** (millerchar.sp:15) pulse ving period too small, reset to   2.0050000E-10

   *** parameter drain =   -1.800E+00 ***


          ***** job concluded
  **warning** (millerchar.sp:15) pulse ving period too small, reset to   2.0050000E-10

   *** parameter drain =   -1.788E+00 ***


          ***** job concluded
  **warning** (millerchar.sp:15) pulse ving period too small, reset to   2.0050000E-10

   *** parameter drain =   -1.775E+00 ***


          ***** job concluded
  **warning** (millerchar.sp:15) pulse ving period too small, reset to   2.0050000E-10

   *** parameter drain =   -1.762E+00 ***


          ***** job concluded
  **warning** (millerchar.sp:15) pulse ving period too small, reset to   2.0050000E-10

   *** parameter drain =   -1.750E+00 ***


          ***** job concluded
  **warning** (millerchar.sp:15) pulse ving period too small, reset to   2.0050000E-10

   *** parameter drain =   -1.738E+00 ***


          ***** job concluded
  **warning** (millerchar.sp:15) pulse ving period too small, reset to   2.0050000E-10

   *** parameter drain =   -1.725E+00 ***


          ***** job concluded
  **warning** (millerchar.sp:15) pulse ving period too small, reset to   2.0050000E-10

   *** parameter drain =   -1.712E+00 ***


          ***** job concluded
  **warning** (millerchar.sp:15) pulse ving period too small, reset to   2.0050000E-10

   *** parameter drain =   -1.700E+00 ***


          ***** job concluded
  **warning** (millerchar.sp:15) pulse ving period too small, reset to   2.0050000E-10

   *** parameter drain =   -1.688E+00 ***


          ***** job concluded
  **warning** (millerchar.sp:15) pulse ving period too small, reset to   2.0050000E-10

   *** parameter drain =   -1.675E+00 ***


          ***** job concluded
  **warning** (millerchar.sp:15) pulse ving period too small, reset to   2.0050000E-10

   *** parameter drain =   -1.663E+00 ***


          ***** job concluded
  **warning** (millerchar.sp:15) pulse ving period too small, reset to   2.0050000E-10

   *** parameter drain =   -1.650E+00 ***


          ***** job concluded
  **warning** (millerchar.sp:15) pulse ving period too small, reset to   2.0050000E-10

   *** parameter drain =   -1.637E+00 ***


          ***** job concluded
  **warning** (millerchar.sp:15) pulse ving period too small, reset to   2.0050000E-10

   *** parameter drain =   -1.625E+00 ***


          ***** job concluded
  **warning** (millerchar.sp:15) pulse ving period too small, reset to   2.0050000E-10

   *** parameter drain =   -1.613E+00 ***


          ***** job concluded
  **warning** (millerchar.sp:15) pulse ving period too small, reset to   2.0050000E-10

   *** parameter drain =   -1.600E+00 ***


          ***** job concluded
  **warning** (millerchar.sp:15) pulse ving period too small, reset to   2.0050000E-10

   *** parameter drain =   -1.587E+00 ***


          ***** job concluded
  **warning** (millerchar.sp:15) pulse ving period too small, reset to   2.0050000E-10

   *** parameter drain =   -1.575E+00 ***


          ***** job concluded
  **warning** (millerchar.sp:15) pulse ving period too small, reset to   2.0050000E-10

   *** parameter drain =   -1.562E+00 ***


          ***** job concluded
  **warning** (millerchar.sp:15) pulse ving period too small, reset to   2.0050000E-10

   *** parameter drain =   -1.550E+00 ***


          ***** job concluded
  **warning** (millerchar.sp:15) pulse ving period too small, reset to   2.0050000E-10

   *** parameter drain =   -1.538E+00 ***


          ***** job concluded
  **warning** (millerchar.sp:15) pulse ving period too small, reset to   2.0050000E-10

   *** parameter drain =   -1.525E+00 ***


          ***** job concluded
  **warning** (millerchar.sp:15) pulse ving period too small, reset to   2.0050000E-10

   *** parameter drain =   -1.512E+00 ***


          ***** job concluded
  **warning** (millerchar.sp:15) pulse ving period too small, reset to   2.0050000E-10

   *** parameter drain =   -1.500E+00 ***


          ***** job concluded
  **warning** (millerchar.sp:15) pulse ving period too small, reset to   2.0050000E-10

   *** parameter drain =   -1.487E+00 ***


          ***** job concluded
  **warning** (millerchar.sp:15) pulse ving period too small, reset to   2.0050000E-10

   *** parameter drain =   -1.475E+00 ***


          ***** job concluded
  **warning** (millerchar.sp:15) pulse ving period too small, reset to   2.0050000E-10

   *** parameter drain =   -1.462E+00 ***


          ***** job concluded
  **warning** (millerchar.sp:15) pulse ving period too small, reset to   2.0050000E-10

   *** parameter drain =   -1.450E+00 ***


          ***** job concluded
  **warning** (millerchar.sp:15) pulse ving period too small, reset to   2.0050000E-10

   *** parameter drain =   -1.438E+00 ***


          ***** job concluded
  **warning** (millerchar.sp:15) pulse ving period too small, reset to   2.0050000E-10

   *** parameter drain =   -1.425E+00 ***


          ***** job concluded
  **warning** (millerchar.sp:15) pulse ving period too small, reset to   2.0050000E-10

   *** parameter drain =   -1.413E+00 ***


          ***** job concluded
  **warning** (millerchar.sp:15) pulse ving period too small, reset to   2.0050000E-10

   *** parameter drain =   -1.400E+00 ***


          ***** job concluded
  **warning** (millerchar.sp:15) pulse ving period too small, reset to   2.0050000E-10

   *** parameter drain =   -1.387E+00 ***


          ***** job concluded
  **warning** (millerchar.sp:15) pulse ving period too small, reset to   2.0050000E-10

   *** parameter drain =   -1.375E+00 ***


          ***** job concluded
  **warning** (millerchar.sp:15) pulse ving period too small, reset to   2.0050000E-10

   *** parameter drain =   -1.362E+00 ***


          ***** job concluded
  **warning** (millerchar.sp:15) pulse ving period too small, reset to   2.0050000E-10

   *** parameter drain =   -1.350E+00 ***


          ***** job concluded
  **warning** (millerchar.sp:15) pulse ving period too small, reset to   2.0050000E-10

   *** parameter drain =   -1.337E+00 ***


          ***** job concluded
  **warning** (millerchar.sp:15) pulse ving period too small, reset to   2.0050000E-10

   *** parameter drain =   -1.325E+00 ***


          ***** job concluded
  **warning** (millerchar.sp:15) pulse ving period too small, reset to   2.0050000E-10

   *** parameter drain =   -1.312E+00 ***


          ***** job concluded
  **warning** (millerchar.sp:15) pulse ving period too small, reset to   2.0050000E-10

   *** parameter drain =   -1.300E+00 ***


          ***** job concluded
  **warning** (millerchar.sp:15) pulse ving period too small, reset to   2.0050000E-10

   *** parameter drain =   -1.288E+00 ***


          ***** job concluded
  **warning** (millerchar.sp:15) pulse ving period too small, reset to   2.0050000E-10

   *** parameter drain =   -1.275E+00 ***


          ***** job concluded
  **warning** (millerchar.sp:15) pulse ving period too small, reset to   2.0050000E-10

   *** parameter drain =   -1.262E+00 ***


          ***** job concluded
  **warning** (millerchar.sp:15) pulse ving period too small, reset to   2.0050000E-10

   *** parameter drain =   -1.250E+00 ***


          ***** job concluded
  **warning** (millerchar.sp:15) pulse ving period too small, reset to   2.0050000E-10

   *** parameter drain =   -1.237E+00 ***


          ***** job concluded
  **warning** (millerchar.sp:15) pulse ving period too small, reset to   2.0050000E-10

   *** parameter drain =   -1.225E+00 ***


          ***** job concluded
  **warning** (millerchar.sp:15) pulse ving period too small, reset to   2.0050000E-10

   *** parameter drain =   -1.212E+00 ***


          ***** job concluded
  **warning** (millerchar.sp:15) pulse ving period too small, reset to   2.0050000E-10

   *** parameter drain =   -1.200E+00 ***


          ***** job concluded
  **warning** (millerchar.sp:15) pulse ving period too small, reset to   2.0050000E-10

   *** parameter drain =   -1.188E+00 ***


          ***** job concluded
  **warning** (millerchar.sp:15) pulse ving period too small, reset to   2.0050000E-10

   *** parameter drain =   -1.175E+00 ***


          ***** job concluded
  **warning** (millerchar.sp:15) pulse ving period too small, reset to   2.0050000E-10

   *** parameter drain =   -1.163E+00 ***


          ***** job concluded
  **warning** (millerchar.sp:15) pulse ving period too small, reset to   2.0050000E-10

   *** parameter drain =   -1.150E+00 ***


          ***** job concluded
  **warning** (millerchar.sp:15) pulse ving period too small, reset to   2.0050000E-10

   *** parameter drain =   -1.137E+00 ***


          ***** job concluded
  **warning** (millerchar.sp:15) pulse ving period too small, reset to   2.0050000E-10

   *** parameter drain =   -1.125E+00 ***


          ***** job concluded
  **warning** (millerchar.sp:15) pulse ving period too small, reset to   2.0050000E-10

   *** parameter drain =   -1.112E+00 ***


          ***** job concluded
  **warning** (millerchar.sp:15) pulse ving period too small, reset to   2.0050000E-10

   *** parameter drain =   -1.100E+00 ***


          ***** job concluded
  **warning** (millerchar.sp:15) pulse ving period too small, reset to   2.0050000E-10

   *** parameter drain =   -1.087E+00 ***


          ***** job concluded
  **warning** (millerchar.sp:15) pulse ving period too small, reset to   2.0050000E-10

   *** parameter drain =   -1.075E+00 ***


          ***** job concluded
  **warning** (millerchar.sp:15) pulse ving period too small, reset to   2.0050000E-10

   *** parameter drain =   -1.062E+00 ***


          ***** job concluded
  **warning** (millerchar.sp:15) pulse ving period too small, reset to   2.0050000E-10

   *** parameter drain =   -1.050E+00 ***


          ***** job concluded
  **warning** (millerchar.sp:15) pulse ving period too small, reset to   2.0050000E-10

   *** parameter drain =   -1.038E+00 ***


          ***** job concluded
  **warning** (millerchar.sp:15) pulse ving period too small, reset to   2.0050000E-10

   *** parameter drain =   -1.025E+00 ***


          ***** job concluded
  **warning** (millerchar.sp:15) pulse ving period too small, reset to   2.0050000E-10

   *** parameter drain =   -1.012E+00 ***


          ***** job concluded
  **warning** (millerchar.sp:15) pulse ving period too small, reset to   2.0050000E-10

   *** parameter drain =   -1.000E+00 ***


          ***** job concluded
  **warning** (millerchar.sp:15) pulse ving period too small, reset to   2.0050000E-10

   *** parameter drain =   -9.875E-01 ***


          ***** job concluded
  **warning** (millerchar.sp:15) pulse ving period too small, reset to   2.0050000E-10

   *** parameter drain =   -9.750E-01 ***


          ***** job concluded
  **warning** (millerchar.sp:15) pulse ving period too small, reset to   2.0050000E-10

   *** parameter drain =   -9.625E-01 ***


          ***** job concluded
  **warning** (millerchar.sp:15) pulse ving period too small, reset to   2.0050000E-10

   *** parameter drain =   -9.500E-01 ***


          ***** job concluded
  **warning** (millerchar.sp:15) pulse ving period too small, reset to   2.0050000E-10

   *** parameter drain =   -9.375E-01 ***


          ***** job concluded
  **warning** (millerchar.sp:15) pulse ving period too small, reset to   2.0050000E-10

   *** parameter drain =   -9.250E-01 ***


          ***** job concluded
  **warning** (millerchar.sp:15) pulse ving period too small, reset to   2.0050000E-10

   *** parameter drain =   -9.125E-01 ***


          ***** job concluded
  **warning** (millerchar.sp:15) pulse ving period too small, reset to   2.0050000E-10

   *** parameter drain =   -9.000E-01 ***


          ***** job concluded
  **warning** (millerchar.sp:15) pulse ving period too small, reset to   2.0050000E-10

   *** parameter drain =   -8.875E-01 ***


          ***** job concluded
  **warning** (millerchar.sp:15) pulse ving period too small, reset to   2.0050000E-10

   *** parameter drain =   -8.750E-01 ***


          ***** job concluded
  **warning** (millerchar.sp:15) pulse ving period too small, reset to   2.0050000E-10

   *** parameter drain =   -8.625E-01 ***


          ***** job concluded
  **warning** (millerchar.sp:15) pulse ving period too small, reset to   2.0050000E-10

   *** parameter drain =   -8.500E-01 ***


          ***** job concluded
  **warning** (millerchar.sp:15) pulse ving period too small, reset to   2.0050000E-10

   *** parameter drain =   -8.375E-01 ***


          ***** job concluded
  **warning** (millerchar.sp:15) pulse ving period too small, reset to   2.0050000E-10

   *** parameter drain =   -8.250E-01 ***


          ***** job concluded
  **warning** (millerchar.sp:15) pulse ving period too small, reset to   2.0050000E-10

   *** parameter drain =   -8.125E-01 ***


          ***** job concluded
  **warning** (millerchar.sp:15) pulse ving period too small, reset to   2.0050000E-10

   *** parameter drain =   -8.000E-01 ***


          ***** job concluded
  **warning** (millerchar.sp:15) pulse ving period too small, reset to   2.0050000E-10

   *** parameter drain =   -7.875E-01 ***


          ***** job concluded
  **warning** (millerchar.sp:15) pulse ving period too small, reset to   2.0050000E-10

   *** parameter drain =   -7.750E-01 ***


          ***** job concluded
  **warning** (millerchar.sp:15) pulse ving period too small, reset to   2.0050000E-10

   *** parameter drain =   -7.625E-01 ***


          ***** job concluded
  **warning** (millerchar.sp:15) pulse ving period too small, reset to   2.0050000E-10

   *** parameter drain =   -7.500E-01 ***


          ***** job concluded
  **warning** (millerchar.sp:15) pulse ving period too small, reset to   2.0050000E-10

   *** parameter drain =   -7.375E-01 ***


          ***** job concluded
  **warning** (millerchar.sp:15) pulse ving period too small, reset to   2.0050000E-10

   *** parameter drain =   -7.250E-01 ***


          ***** job concluded
  **warning** (millerchar.sp:15) pulse ving period too small, reset to   2.0050000E-10

   *** parameter drain =   -7.125E-01 ***


          ***** job concluded
  **warning** (millerchar.sp:15) pulse ving period too small, reset to   2.0050000E-10

   *** parameter drain =   -7.000E-01 ***


          ***** job concluded
  **warning** (millerchar.sp:15) pulse ving period too small, reset to   2.0050000E-10

   *** parameter drain =   -6.875E-01 ***


          ***** job concluded
  **warning** (millerchar.sp:15) pulse ving period too small, reset to   2.0050000E-10

   *** parameter drain =   -6.750E-01 ***


          ***** job concluded
  **warning** (millerchar.sp:15) pulse ving period too small, reset to   2.0050000E-10

   *** parameter drain =   -6.625E-01 ***


          ***** job concluded
  **warning** (millerchar.sp:15) pulse ving period too small, reset to   2.0050000E-10

   *** parameter drain =   -6.500E-01 ***


          ***** job concluded
  **warning** (millerchar.sp:15) pulse ving period too small, reset to   2.0050000E-10

   *** parameter drain =   -6.375E-01 ***


          ***** job concluded
  **warning** (millerchar.sp:15) pulse ving period too small, reset to   2.0050000E-10

   *** parameter drain =   -6.250E-01 ***


          ***** job concluded
  **warning** (millerchar.sp:15) pulse ving period too small, reset to   2.0050000E-10

   *** parameter drain =   -6.125E-01 ***


          ***** job concluded
  **warning** (millerchar.sp:15) pulse ving period too small, reset to   2.0050000E-10

   *** parameter drain =   -6.000E-01 ***


          ***** job concluded
  **warning** (millerchar.sp:15) pulse ving period too small, reset to   2.0050000E-10

   *** parameter drain =   -5.875E-01 ***


          ***** job concluded
  **warning** (millerchar.sp:15) pulse ving period too small, reset to   2.0050000E-10

   *** parameter drain =   -5.750E-01 ***


          ***** job concluded
  **warning** (millerchar.sp:15) pulse ving period too small, reset to   2.0050000E-10

   *** parameter drain =   -5.625E-01 ***


          ***** job concluded
  **warning** (millerchar.sp:15) pulse ving period too small, reset to   2.0050000E-10

   *** parameter drain =   -5.500E-01 ***


          ***** job concluded
  **warning** (millerchar.sp:15) pulse ving period too small, reset to   2.0050000E-10

   *** parameter drain =   -5.375E-01 ***


          ***** job concluded
  **warning** (millerchar.sp:15) pulse ving period too small, reset to   2.0050000E-10

   *** parameter drain =   -5.250E-01 ***


          ***** job concluded
  **warning** (millerchar.sp:15) pulse ving period too small, reset to   2.0050000E-10

   *** parameter drain =   -5.125E-01 ***


          ***** job concluded
  **warning** (millerchar.sp:15) pulse ving period too small, reset to   2.0050000E-10

   *** parameter drain =   -5.000E-01 ***


          ***** job concluded
  **warning** (millerchar.sp:15) pulse ving period too small, reset to   2.0050000E-10

   *** parameter drain =   -4.875E-01 ***


          ***** job concluded
  **warning** (millerchar.sp:15) pulse ving period too small, reset to   2.0050000E-10

   *** parameter drain =   -4.750E-01 ***


          ***** job concluded
  **warning** (millerchar.sp:15) pulse ving period too small, reset to   2.0050000E-10

   *** parameter drain =   -4.625E-01 ***


          ***** job concluded
  **warning** (millerchar.sp:15) pulse ving period too small, reset to   2.0050000E-10

   *** parameter drain =   -4.500E-01 ***


          ***** job concluded
  **warning** (millerchar.sp:15) pulse ving period too small, reset to   2.0050000E-10

   *** parameter drain =   -4.375E-01 ***


          ***** job concluded
  **warning** (millerchar.sp:15) pulse ving period too small, reset to   2.0050000E-10

   *** parameter drain =   -4.250E-01 ***


          ***** job concluded
  **warning** (millerchar.sp:15) pulse ving period too small, reset to   2.0050000E-10

   *** parameter drain =   -4.125E-01 ***


          ***** job concluded
  **warning** (millerchar.sp:15) pulse ving period too small, reset to   2.0050000E-10

   *** parameter drain =   -4.000E-01 ***


          ***** job concluded
  **warning** (millerchar.sp:15) pulse ving period too small, reset to   2.0050000E-10

   *** parameter drain =   -3.875E-01 ***


          ***** job concluded
  **warning** (millerchar.sp:15) pulse ving period too small, reset to   2.0050000E-10

   *** parameter drain =   -3.750E-01 ***


          ***** job concluded
  **warning** (millerchar.sp:15) pulse ving period too small, reset to   2.0050000E-10

   *** parameter drain =   -3.625E-01 ***


          ***** job concluded
  **warning** (millerchar.sp:15) pulse ving period too small, reset to   2.0050000E-10

   *** parameter drain =   -3.500E-01 ***


          ***** job concluded
  **warning** (millerchar.sp:15) pulse ving period too small, reset to   2.0050000E-10

   *** parameter drain =   -3.375E-01 ***


          ***** job concluded
  **warning** (millerchar.sp:15) pulse ving period too small, reset to   2.0050000E-10

   *** parameter drain =   -3.250E-01 ***


          ***** job concluded
  **warning** (millerchar.sp:15) pulse ving period too small, reset to   2.0050000E-10

   *** parameter drain =   -3.125E-01 ***


          ***** job concluded
  **warning** (millerchar.sp:15) pulse ving period too small, reset to   2.0050000E-10

   *** parameter drain =   -3.000E-01 ***


          ***** job concluded
  **warning** (millerchar.sp:15) pulse ving period too small, reset to   2.0050000E-10

   *** parameter drain =   -2.875E-01 ***


          ***** job concluded
  **warning** (millerchar.sp:15) pulse ving period too small, reset to   2.0050000E-10

   *** parameter drain =   -2.750E-01 ***


          ***** job concluded
  **warning** (millerchar.sp:15) pulse ving period too small, reset to   2.0050000E-10

   *** parameter drain =   -2.625E-01 ***


          ***** job concluded
  **warning** (millerchar.sp:15) pulse ving period too small, reset to   2.0050000E-10

   *** parameter drain =   -2.500E-01 ***


          ***** job concluded
  **warning** (millerchar.sp:15) pulse ving period too small, reset to   2.0050000E-10

   *** parameter drain =   -2.375E-01 ***


          ***** job concluded
  **warning** (millerchar.sp:15) pulse ving period too small, reset to   2.0050000E-10

   *** parameter drain =   -2.250E-01 ***


          ***** job concluded
  **warning** (millerchar.sp:15) pulse ving period too small, reset to   2.0050000E-10

   *** parameter drain =   -2.125E-01 ***


          ***** job concluded
  **warning** (millerchar.sp:15) pulse ving period too small, reset to   2.0050000E-10

   *** parameter drain =   -2.000E-01 ***


          ***** job concluded
  **warning** (millerchar.sp:15) pulse ving period too small, reset to   2.0050000E-10

   *** parameter drain =   -1.875E-01 ***


          ***** job concluded
  **warning** (millerchar.sp:15) pulse ving period too small, reset to   2.0050000E-10

   *** parameter drain =   -1.750E-01 ***


          ***** job concluded
  **warning** (millerchar.sp:15) pulse ving period too small, reset to   2.0050000E-10

   *** parameter drain =   -1.625E-01 ***


          ***** job concluded
  **warning** (millerchar.sp:15) pulse ving period too small, reset to   2.0050000E-10

   *** parameter drain =   -1.500E-01 ***


          ***** job concluded
  **warning** (millerchar.sp:15) pulse ving period too small, reset to   2.0050000E-10

   *** parameter drain =   -1.375E-01 ***


          ***** job concluded
  **warning** (millerchar.sp:15) pulse ving period too small, reset to   2.0050000E-10

   *** parameter drain =   -1.250E-01 ***


          ***** job concluded
  **warning** (millerchar.sp:15) pulse ving period too small, reset to   2.0050000E-10

   *** parameter drain =   -1.125E-01 ***


          ***** job concluded
  **warning** (millerchar.sp:15) pulse ving period too small, reset to   2.0050000E-10

   *** parameter drain =   -1.000E-01 ***


          ***** job concluded
  **warning** (millerchar.sp:15) pulse ving period too small, reset to   2.0050000E-10

   *** parameter drain =   -8.750E-02 ***


          ***** job concluded
  **warning** (millerchar.sp:15) pulse ving period too small, reset to   2.0050000E-10

   *** parameter drain =   -7.500E-02 ***


          ***** job concluded
  **warning** (millerchar.sp:15) pulse ving period too small, reset to   2.0050000E-10

   *** parameter drain =   -6.250E-02 ***


          ***** job concluded
  **warning** (millerchar.sp:15) pulse ving period too small, reset to   2.0050000E-10

   *** parameter drain =   -5.000E-02 ***


          ***** job concluded
  **warning** (millerchar.sp:15) pulse ving period too small, reset to   2.0050000E-10

   *** parameter drain =   -3.750E-02 ***


          ***** job concluded
  **warning** (millerchar.sp:15) pulse ving period too small, reset to   2.0050000E-10

   *** parameter drain =   -2.500E-02 ***


          ***** job concluded
  **warning** (millerchar.sp:15) pulse ving period too small, reset to   2.0050000E-10

   *** parameter drain =   -1.250E-02 ***


          ***** job concluded
  **warning** (millerchar.sp:15) pulse ving period too small, reset to   2.0050000E-10

   *** parameter drain =    0.000E+00 ***


          ***** job concluded
  **warning** (millerchar.sp:15) pulse ving period too small, reset to   2.0050000E-10

   *** parameter drain =    1.250E-02 ***


          ***** job concluded
  **warning** (millerchar.sp:15) pulse ving period too small, reset to   2.0050000E-10

   *** parameter drain =    2.500E-02 ***


          ***** job concluded
  **warning** (millerchar.sp:15) pulse ving period too small, reset to   2.0050000E-10

   *** parameter drain =    3.750E-02 ***


          ***** job concluded
  **warning** (millerchar.sp:15) pulse ving period too small, reset to   2.0050000E-10

   *** parameter drain =    5.000E-02 ***


          ***** job concluded
  **warning** (millerchar.sp:15) pulse ving period too small, reset to   2.0050000E-10

   *** parameter drain =    6.250E-02 ***


          ***** job concluded
  **warning** (millerchar.sp:15) pulse ving period too small, reset to   2.0050000E-10

   *** parameter drain =    7.500E-02 ***


          ***** job concluded
  **warning** (millerchar.sp:15) pulse ving period too small, reset to   2.0050000E-10

   *** parameter drain =    8.750E-02 ***


          ***** job concluded
  **warning** (millerchar.sp:15) pulse ving period too small, reset to   2.0050000E-10

   *** parameter drain =    1.000E-01 ***


          ***** job concluded
  **warning** (millerchar.sp:15) pulse ving period too small, reset to   2.0050000E-10

   *** parameter drain =    1.125E-01 ***


          ***** job concluded
  **warning** (millerchar.sp:15) pulse ving period too small, reset to   2.0050000E-10

   *** parameter drain =    1.250E-01 ***


          ***** job concluded
  **warning** (millerchar.sp:15) pulse ving period too small, reset to   2.0050000E-10

   *** parameter drain =    1.375E-01 ***


          ***** job concluded
  **warning** (millerchar.sp:15) pulse ving period too small, reset to   2.0050000E-10

   *** parameter drain =    1.500E-01 ***


          ***** job concluded
  **warning** (millerchar.sp:15) pulse ving period too small, reset to   2.0050000E-10

   *** parameter drain =    1.625E-01 ***


          ***** job concluded
  **warning** (millerchar.sp:15) pulse ving period too small, reset to   2.0050000E-10

   *** parameter drain =    1.750E-01 ***


          ***** job concluded
  **warning** (millerchar.sp:15) pulse ving period too small, reset to   2.0050000E-10

   *** parameter drain =    1.875E-01 ***


          ***** job concluded
  **warning** (millerchar.sp:15) pulse ving period too small, reset to   2.0050000E-10

   *** parameter drain =    2.000E-01 ***


          ***** job concluded
  **warning** (millerchar.sp:15) pulse ving period too small, reset to   2.0050000E-10

   *** parameter drain =    2.125E-01 ***


          ***** job concluded
  **warning** (millerchar.sp:15) pulse ving period too small, reset to   2.0050000E-10

   *** parameter drain =    2.250E-01 ***


          ***** job concluded
  **warning** (millerchar.sp:15) pulse ving period too small, reset to   2.0050000E-10

   *** parameter drain =    2.375E-01 ***


          ***** job concluded
  **warning** (millerchar.sp:15) pulse ving period too small, reset to   2.0050000E-10

   *** parameter drain =    2.500E-01 ***


          ***** job concluded
  **warning** (millerchar.sp:15) pulse ving period too small, reset to   2.0050000E-10

   *** parameter drain =    2.625E-01 ***


          ***** job concluded
  **warning** (millerchar.sp:15) pulse ving period too small, reset to   2.0050000E-10

   *** parameter drain =    2.750E-01 ***


          ***** job concluded
  **warning** (millerchar.sp:15) pulse ving period too small, reset to   2.0050000E-10

   *** parameter drain =    2.875E-01 ***


          ***** job concluded
  **warning** (millerchar.sp:15) pulse ving period too small, reset to   2.0050000E-10

   *** parameter drain =    3.000E-01 ***


          ***** job concluded
  **warning** (millerchar.sp:15) pulse ving period too small, reset to   2.0050000E-10

   *** parameter drain =    3.125E-01 ***


          ***** job concluded
  **warning** (millerchar.sp:15) pulse ving period too small, reset to   2.0050000E-10

   *** parameter drain =    3.250E-01 ***


          ***** job concluded
  **warning** (millerchar.sp:15) pulse ving period too small, reset to   2.0050000E-10

   *** parameter drain =    3.375E-01 ***


          ***** job concluded
  **warning** (millerchar.sp:15) pulse ving period too small, reset to   2.0050000E-10

   *** parameter drain =    3.500E-01 ***


          ***** job concluded
  **warning** (millerchar.sp:15) pulse ving period too small, reset to   2.0050000E-10

   *** parameter drain =    3.625E-01 ***


          ***** job concluded
  **warning** (millerchar.sp:15) pulse ving period too small, reset to   2.0050000E-10

   *** parameter drain =    3.750E-01 ***


          ***** job concluded
  **warning** (millerchar.sp:15) pulse ving period too small, reset to   2.0050000E-10

   *** parameter drain =    3.875E-01 ***


          ***** job concluded
  **warning** (millerchar.sp:15) pulse ving period too small, reset to   2.0050000E-10

   *** parameter drain =    4.000E-01 ***


          ***** job concluded
  **warning** (millerchar.sp:15) pulse ving period too small, reset to   2.0050000E-10

   *** parameter drain =    4.125E-01 ***


          ***** job concluded
  **warning** (millerchar.sp:15) pulse ving period too small, reset to   2.0050000E-10

   *** parameter drain =    4.250E-01 ***


          ***** job concluded
  **warning** (millerchar.sp:15) pulse ving period too small, reset to   2.0050000E-10

   *** parameter drain =    4.375E-01 ***


          ***** job concluded
  **warning** (millerchar.sp:15) pulse ving period too small, reset to   2.0050000E-10

   *** parameter drain =    4.500E-01 ***


          ***** job concluded
  **warning** (millerchar.sp:15) pulse ving period too small, reset to   2.0050000E-10

   *** parameter drain =    4.625E-01 ***


          ***** job concluded
  **warning** (millerchar.sp:15) pulse ving period too small, reset to   2.0050000E-10

   *** parameter drain =    4.750E-01 ***


          ***** job concluded
  **warning** (millerchar.sp:15) pulse ving period too small, reset to   2.0050000E-10

   *** parameter drain =    4.875E-01 ***


          ***** job concluded
  **warning** (millerchar.sp:15) pulse ving period too small, reset to   2.0050000E-10

   *** parameter drain =    5.000E-01 ***


          ***** job concluded
  **warning** (millerchar.sp:15) pulse ving period too small, reset to   2.0050000E-10

   *** parameter drain =    5.125E-01 ***


          ***** job concluded
  **warning** (millerchar.sp:15) pulse ving period too small, reset to   2.0050000E-10

   *** parameter drain =    5.250E-01 ***


          ***** job concluded
  **warning** (millerchar.sp:15) pulse ving period too small, reset to   2.0050000E-10

   *** parameter drain =    5.375E-01 ***


          ***** job concluded
  **warning** (millerchar.sp:15) pulse ving period too small, reset to   2.0050000E-10

   *** parameter drain =    5.500E-01 ***


          ***** job concluded
  **warning** (millerchar.sp:15) pulse ving period too small, reset to   2.0050000E-10

   *** parameter drain =    5.625E-01 ***


          ***** job concluded
  **warning** (millerchar.sp:15) pulse ving period too small, reset to   2.0050000E-10

   *** parameter drain =    5.750E-01 ***


          ***** job concluded
  **warning** (millerchar.sp:15) pulse ving period too small, reset to   2.0050000E-10

   *** parameter drain =    5.875E-01 ***


          ***** job concluded
  **warning** (millerchar.sp:15) pulse ving period too small, reset to   2.0050000E-10

   *** parameter drain =    6.000E-01 ***


          ***** job concluded
  **warning** (millerchar.sp:15) pulse ving period too small, reset to   2.0050000E-10

   *** parameter drain =    6.125E-01 ***


          ***** job concluded
  **warning** (millerchar.sp:15) pulse ving period too small, reset to   2.0050000E-10

   *** parameter drain =    6.250E-01 ***


          ***** job concluded
  **warning** (millerchar.sp:15) pulse ving period too small, reset to   2.0050000E-10

   *** parameter drain =    6.375E-01 ***


          ***** job concluded
  **warning** (millerchar.sp:15) pulse ving period too small, reset to   2.0050000E-10

   *** parameter drain =    6.500E-01 ***


          ***** job concluded
  **warning** (millerchar.sp:15) pulse ving period too small, reset to   2.0050000E-10

   *** parameter drain =    6.625E-01 ***


          ***** job concluded
  **warning** (millerchar.sp:15) pulse ving period too small, reset to   2.0050000E-10

   *** parameter drain =    6.750E-01 ***


          ***** job concluded
  **warning** (millerchar.sp:15) pulse ving period too small, reset to   2.0050000E-10

   *** parameter drain =    6.875E-01 ***


          ***** job concluded
  **warning** (millerchar.sp:15) pulse ving period too small, reset to   2.0050000E-10

   *** parameter drain =    7.000E-01 ***


          ***** job concluded
  **warning** (millerchar.sp:15) pulse ving period too small, reset to   2.0050000E-10

   *** parameter drain =    7.125E-01 ***


          ***** job concluded
  **warning** (millerchar.sp:15) pulse ving period too small, reset to   2.0050000E-10

   *** parameter drain =    7.250E-01 ***


          ***** job concluded
  **warning** (millerchar.sp:15) pulse ving period too small, reset to   2.0050000E-10

   *** parameter drain =    7.375E-01 ***


          ***** job concluded
  **warning** (millerchar.sp:15) pulse ving period too small, reset to   2.0050000E-10

   *** parameter drain =    7.500E-01 ***


          ***** job concluded
  **warning** (millerchar.sp:15) pulse ving period too small, reset to   2.0050000E-10

   *** parameter drain =    7.625E-01 ***


          ***** job concluded
  **warning** (millerchar.sp:15) pulse ving period too small, reset to   2.0050000E-10

   *** parameter drain =    7.750E-01 ***


          ***** job concluded
  **warning** (millerchar.sp:15) pulse ving period too small, reset to   2.0050000E-10

   *** parameter drain =    7.875E-01 ***


          ***** job concluded
  **warning** (millerchar.sp:15) pulse ving period too small, reset to   2.0050000E-10

   *** parameter drain =    8.000E-01 ***


          ***** job concluded
  **warning** (millerchar.sp:15) pulse ving period too small, reset to   2.0050000E-10

   *** parameter drain =    8.125E-01 ***


          ***** job concluded
  **warning** (millerchar.sp:15) pulse ving period too small, reset to   2.0050000E-10

   *** parameter drain =    8.250E-01 ***


          ***** job concluded
  **warning** (millerchar.sp:15) pulse ving period too small, reset to   2.0050000E-10

   *** parameter drain =    8.375E-01 ***


          ***** job concluded
  **warning** (millerchar.sp:15) pulse ving period too small, reset to   2.0050000E-10

   *** parameter drain =    8.500E-01 ***


          ***** job concluded
  **warning** (millerchar.sp:15) pulse ving period too small, reset to   2.0050000E-10

   *** parameter drain =    8.625E-01 ***


          ***** job concluded
  **warning** (millerchar.sp:15) pulse ving period too small, reset to   2.0050000E-10

   *** parameter drain =    8.750E-01 ***


          ***** job concluded
  **warning** (millerchar.sp:15) pulse ving period too small, reset to   2.0050000E-10

   *** parameter drain =    8.875E-01 ***


          ***** job concluded
  **warning** (millerchar.sp:15) pulse ving period too small, reset to   2.0050000E-10

   *** parameter drain =    9.000E-01 ***


          ***** job concluded
  **warning** (millerchar.sp:15) pulse ving period too small, reset to   2.0050000E-10

   *** parameter drain =    9.125E-01 ***


          ***** job concluded
  **warning** (millerchar.sp:15) pulse ving period too small, reset to   2.0050000E-10

   *** parameter drain =    9.250E-01 ***


          ***** job concluded
  **warning** (millerchar.sp:15) pulse ving period too small, reset to   2.0050000E-10

   *** parameter drain =    9.375E-01 ***


          ***** job concluded
  **warning** (millerchar.sp:15) pulse ving period too small, reset to   2.0050000E-10

   *** parameter drain =    9.500E-01 ***


          ***** job concluded
  **warning** (millerchar.sp:15) pulse ving period too small, reset to   2.0050000E-10

   *** parameter drain =    9.625E-01 ***


          ***** job concluded
  **warning** (millerchar.sp:15) pulse ving period too small, reset to   2.0050000E-10

   *** parameter drain =    9.750E-01 ***


          ***** job concluded
  **warning** (millerchar.sp:15) pulse ving period too small, reset to   2.0050000E-10

   *** parameter drain =    9.875E-01 ***


          ***** job concluded
  **warning** (millerchar.sp:15) pulse ving period too small, reset to   2.0050000E-10

   *** parameter drain =    1.000E+00 ***


          ***** job concluded
  **warning** (millerchar.sp:15) pulse ving period too small, reset to   2.0050000E-10

   *** parameter drain =    1.013E+00 ***


          ***** job concluded
  **warning** (millerchar.sp:15) pulse ving period too small, reset to   2.0050000E-10

   *** parameter drain =    1.025E+00 ***


          ***** job concluded
  **warning** (millerchar.sp:15) pulse ving period too small, reset to   2.0050000E-10

   *** parameter drain =    1.038E+00 ***


          ***** job concluded
  **warning** (millerchar.sp:15) pulse ving period too small, reset to   2.0050000E-10

   *** parameter drain =    1.050E+00 ***


          ***** job concluded
  **warning** (millerchar.sp:15) pulse ving period too small, reset to   2.0050000E-10

   *** parameter drain =    1.062E+00 ***


          ***** job concluded
  **warning** (millerchar.sp:15) pulse ving period too small, reset to   2.0050000E-10

   *** parameter drain =    1.075E+00 ***


          ***** job concluded
  **warning** (millerchar.sp:15) pulse ving period too small, reset to   2.0050000E-10

   *** parameter drain =    1.088E+00 ***


          ***** job concluded
  **warning** (millerchar.sp:15) pulse ving period too small, reset to   2.0050000E-10

   *** parameter drain =    1.100E+00 ***


          ***** job concluded
  **warning** (millerchar.sp:15) pulse ving period too small, reset to   2.0050000E-10

   *** parameter drain =    1.113E+00 ***


          ***** job concluded
  **warning** (millerchar.sp:15) pulse ving period too small, reset to   2.0050000E-10

   *** parameter drain =    1.125E+00 ***


          ***** job concluded
  **warning** (millerchar.sp:15) pulse ving period too small, reset to   2.0050000E-10

   *** parameter drain =    1.138E+00 ***


          ***** job concluded
  **warning** (millerchar.sp:15) pulse ving period too small, reset to   2.0050000E-10

   *** parameter drain =    1.150E+00 ***


          ***** job concluded
  **warning** (millerchar.sp:15) pulse ving period too small, reset to   2.0050000E-10

   *** parameter drain =    1.163E+00 ***


          ***** job concluded
  **warning** (millerchar.sp:15) pulse ving period too small, reset to   2.0050000E-10

   *** parameter drain =    1.175E+00 ***


          ***** job concluded
  **warning** (millerchar.sp:15) pulse ving period too small, reset to   2.0050000E-10

   *** parameter drain =    1.188E+00 ***


          ***** job concluded
  **warning** (millerchar.sp:15) pulse ving period too small, reset to   2.0050000E-10

   *** parameter drain =    1.200E+00 ***


          ***** job concluded
  **warning** (millerchar.sp:15) pulse ving period too small, reset to   2.0050000E-10

   *** parameter drain =    1.213E+00 ***


          ***** job concluded
  **warning** (millerchar.sp:15) pulse ving period too small, reset to   2.0050000E-10

   *** parameter drain =    1.225E+00 ***


          ***** job concluded
  **warning** (millerchar.sp:15) pulse ving period too small, reset to   2.0050000E-10

   *** parameter drain =    1.238E+00 ***


          ***** job concluded
  **warning** (millerchar.sp:15) pulse ving period too small, reset to   2.0050000E-10

   *** parameter drain =    1.250E+00 ***


          ***** job concluded
  **warning** (millerchar.sp:15) pulse ving period too small, reset to   2.0050000E-10

   *** parameter drain =    1.263E+00 ***


          ***** job concluded
  **warning** (millerchar.sp:15) pulse ving period too small, reset to   2.0050000E-10

   *** parameter drain =    1.275E+00 ***


          ***** job concluded
  **warning** (millerchar.sp:15) pulse ving period too small, reset to   2.0050000E-10

   *** parameter drain =    1.288E+00 ***


          ***** job concluded
  **warning** (millerchar.sp:15) pulse ving period too small, reset to   2.0050000E-10

   *** parameter drain =    1.300E+00 ***


          ***** job concluded
  **warning** (millerchar.sp:15) pulse ving period too small, reset to   2.0050000E-10

   *** parameter drain =    1.312E+00 ***


          ***** job concluded
  **warning** (millerchar.sp:15) pulse ving period too small, reset to   2.0050000E-10

   *** parameter drain =    1.325E+00 ***


          ***** job concluded
  **warning** (millerchar.sp:15) pulse ving period too small, reset to   2.0050000E-10

   *** parameter drain =    1.338E+00 ***


          ***** job concluded
  **warning** (millerchar.sp:15) pulse ving period too small, reset to   2.0050000E-10

   *** parameter drain =    1.350E+00 ***


          ***** job concluded
  **warning** (millerchar.sp:15) pulse ving period too small, reset to   2.0050000E-10

   *** parameter drain =    1.363E+00 ***


          ***** job concluded
  **warning** (millerchar.sp:15) pulse ving period too small, reset to   2.0050000E-10

   *** parameter drain =    1.375E+00 ***


          ***** job concluded
  **warning** (millerchar.sp:15) pulse ving period too small, reset to   2.0050000E-10

   *** parameter drain =    1.388E+00 ***


          ***** job concluded
  **warning** (millerchar.sp:15) pulse ving period too small, reset to   2.0050000E-10

   *** parameter drain =    1.400E+00 ***


          ***** job concluded
  **warning** (millerchar.sp:15) pulse ving period too small, reset to   2.0050000E-10

   *** parameter drain =    1.413E+00 ***


          ***** job concluded
  **warning** (millerchar.sp:15) pulse ving period too small, reset to   2.0050000E-10

   *** parameter drain =    1.425E+00 ***


          ***** job concluded
  **warning** (millerchar.sp:15) pulse ving period too small, reset to   2.0050000E-10

   *** parameter drain =    1.438E+00 ***


          ***** job concluded
  **warning** (millerchar.sp:15) pulse ving period too small, reset to   2.0050000E-10

   *** parameter drain =    1.450E+00 ***


          ***** job concluded
  **warning** (millerchar.sp:15) pulse ving period too small, reset to   2.0050000E-10

   *** parameter drain =    1.463E+00 ***


          ***** job concluded
  **warning** (millerchar.sp:15) pulse ving period too small, reset to   2.0050000E-10

   *** parameter drain =    1.475E+00 ***


          ***** job concluded
  **warning** (millerchar.sp:15) pulse ving period too small, reset to   2.0050000E-10

   *** parameter drain =    1.488E+00 ***


          ***** job concluded
  **warning** (millerchar.sp:15) pulse ving period too small, reset to   2.0050000E-10

   *** parameter drain =    1.500E+00 ***


          ***** job concluded
  **warning** (millerchar.sp:15) pulse ving period too small, reset to   2.0050000E-10

   *** parameter drain =    1.513E+00 ***


          ***** job concluded
  **warning** (millerchar.sp:15) pulse ving period too small, reset to   2.0050000E-10

   *** parameter drain =    1.525E+00 ***


          ***** job concluded
  **warning** (millerchar.sp:15) pulse ving period too small, reset to   2.0050000E-10

   *** parameter drain =    1.538E+00 ***


          ***** job concluded
  **warning** (millerchar.sp:15) pulse ving period too small, reset to   2.0050000E-10

   *** parameter drain =    1.550E+00 ***


          ***** job concluded
  **warning** (millerchar.sp:15) pulse ving period too small, reset to   2.0050000E-10

   *** parameter drain =    1.562E+00 ***


          ***** job concluded
  **warning** (millerchar.sp:15) pulse ving period too small, reset to   2.0050000E-10

   *** parameter drain =    1.575E+00 ***


          ***** job concluded
  **warning** (millerchar.sp:15) pulse ving period too small, reset to   2.0050000E-10

   *** parameter drain =    1.588E+00 ***


          ***** job concluded
  **warning** (millerchar.sp:15) pulse ving period too small, reset to   2.0050000E-10

   *** parameter drain =    1.600E+00 ***


          ***** job concluded
  **warning** (millerchar.sp:15) pulse ving period too small, reset to   2.0050000E-10

   *** parameter drain =    1.613E+00 ***


          ***** job concluded
  **warning** (millerchar.sp:15) pulse ving period too small, reset to   2.0050000E-10

   *** parameter drain =    1.625E+00 ***


          ***** job concluded
  **warning** (millerchar.sp:15) pulse ving period too small, reset to   2.0050000E-10

   *** parameter drain =    1.638E+00 ***


          ***** job concluded
  **warning** (millerchar.sp:15) pulse ving period too small, reset to   2.0050000E-10

   *** parameter drain =    1.650E+00 ***


          ***** job concluded
  **warning** (millerchar.sp:15) pulse ving period too small, reset to   2.0050000E-10

   *** parameter drain =    1.663E+00 ***


          ***** job concluded
  **warning** (millerchar.sp:15) pulse ving period too small, reset to   2.0050000E-10

   *** parameter drain =    1.675E+00 ***


          ***** job concluded
  **warning** (millerchar.sp:15) pulse ving period too small, reset to   2.0050000E-10

   *** parameter drain =    1.688E+00 ***


          ***** job concluded
  **warning** (millerchar.sp:15) pulse ving period too small, reset to   2.0050000E-10

   *** parameter drain =    1.700E+00 ***


          ***** job concluded
  **warning** (millerchar.sp:15) pulse ving period too small, reset to   2.0050000E-10

   *** parameter drain =    1.713E+00 ***


          ***** job concluded
  **warning** (millerchar.sp:15) pulse ving period too small, reset to   2.0050000E-10

   *** parameter drain =    1.725E+00 ***


          ***** job concluded
  **warning** (millerchar.sp:15) pulse ving period too small, reset to   2.0050000E-10

   *** parameter drain =    1.738E+00 ***


          ***** job concluded
  **warning** (millerchar.sp:15) pulse ving period too small, reset to   2.0050000E-10

   *** parameter drain =    1.750E+00 ***


          ***** job concluded
  **warning** (millerchar.sp:15) pulse ving period too small, reset to   2.0050000E-10

   *** parameter drain =    1.763E+00 ***


          ***** job concluded
  **warning** (millerchar.sp:15) pulse ving period too small, reset to   2.0050000E-10

   *** parameter drain =    1.775E+00 ***


          ***** job concluded
  **warning** (millerchar.sp:15) pulse ving period too small, reset to   2.0050000E-10

   *** parameter drain =    1.788E+00 ***


          ***** job concluded
  **warning** (millerchar.sp:15) pulse ving period too small, reset to   2.0050000E-10

   *** parameter drain =    1.800E+00 ***


          ***** job concluded
  **warning** (millerchar.sp:15) pulse ving period too small, reset to   2.0050000E-10

   *** parameter drain =    1.812E+00 ***


          ***** job concluded
  **warning** (millerchar.sp:15) pulse ving period too small, reset to   2.0050000E-10

   *** parameter drain =    1.825E+00 ***


          ***** job concluded
  **warning** (millerchar.sp:15) pulse ving period too small, reset to   2.0050000E-10

   *** parameter drain =    1.838E+00 ***


          ***** job concluded
  **warning** (millerchar.sp:15) pulse ving period too small, reset to   2.0050000E-10

   *** parameter drain =    1.850E+00 ***


          ***** job concluded
  **warning** (millerchar.sp:15) pulse ving period too small, reset to   2.0050000E-10

   *** parameter drain =    1.863E+00 ***


          ***** job concluded
  **warning** (millerchar.sp:15) pulse ving period too small, reset to   2.0050000E-10

   *** parameter drain =    1.875E+00 ***


          ***** job concluded
  **warning** (millerchar.sp:15) pulse ving period too small, reset to   2.0050000E-10

   *** parameter drain =    1.888E+00 ***


          ***** job concluded
  **warning** (millerchar.sp:15) pulse ving period too small, reset to   2.0050000E-10

   *** parameter drain =    1.900E+00 ***


          ***** job concluded
  **warning** (millerchar.sp:15) pulse ving period too small, reset to   2.0050000E-10

   *** parameter drain =    1.913E+00 ***


          ***** job concluded
  **warning** (millerchar.sp:15) pulse ving period too small, reset to   2.0050000E-10

   *** parameter drain =    1.925E+00 ***


          ***** job concluded
  **warning** (millerchar.sp:15) pulse ving period too small, reset to   2.0050000E-10

   *** parameter drain =    1.938E+00 ***


          ***** job concluded
  **warning** (millerchar.sp:15) pulse ving period too small, reset to   2.0050000E-10

   *** parameter drain =    1.950E+00 ***


          ***** job concluded
  **warning** (millerchar.sp:15) pulse ving period too small, reset to   2.0050000E-10

   *** parameter drain =    1.963E+00 ***


          ***** job concluded
  **warning** (millerchar.sp:15) pulse ving period too small, reset to   2.0050000E-10

   *** parameter drain =    1.975E+00 ***


          ***** job concluded
  **warning** (millerchar.sp:15) pulse ving period too small, reset to   2.0050000E-10

   *** parameter drain =    1.988E+00 ***


          ***** job concluded
  **warning** (millerchar.sp:15) pulse ving period too small, reset to   2.0050000E-10

   *** parameter drain =    2.000E+00 ***


          ***** job concluded
  **warning** (millerchar.sp:15) pulse ving period too small, reset to   2.0050000E-10

   *** parameter drain =    2.013E+00 ***


          ***** job concluded
  **warning** (millerchar.sp:15) pulse ving period too small, reset to   2.0050000E-10

   *** parameter drain =    2.025E+00 ***


          ***** job concluded
  **warning** (millerchar.sp:15) pulse ving period too small, reset to   2.0050000E-10

   *** parameter drain =    2.038E+00 ***


          ***** job concluded
  **warning** (millerchar.sp:15) pulse ving period too small, reset to   2.0050000E-10

   *** parameter drain =    2.050E+00 ***


          ***** job concluded
  **warning** (millerchar.sp:15) pulse ving period too small, reset to   2.0050000E-10

   *** parameter drain =    2.062E+00 ***


          ***** job concluded
  **warning** (millerchar.sp:15) pulse ving period too small, reset to   2.0050000E-10

   *** parameter drain =    2.075E+00 ***


          ***** job concluded
  **warning** (millerchar.sp:15) pulse ving period too small, reset to   2.0050000E-10

   *** parameter drain =    2.088E+00 ***


          ***** job concluded
  **warning** (millerchar.sp:15) pulse ving period too small, reset to   2.0050000E-10

   *** parameter drain =    2.100E+00 ***


          ***** job concluded
  **warning** (millerchar.sp:15) pulse ving period too small, reset to   2.0050000E-10

   *** parameter drain =    2.112E+00 ***


          ***** job concluded
  **warning** (millerchar.sp:15) pulse ving period too small, reset to   2.0050000E-10

   *** parameter drain =    2.125E+00 ***


          ***** job concluded
  **warning** (millerchar.sp:15) pulse ving period too small, reset to   2.0050000E-10

   *** parameter drain =    2.138E+00 ***


          ***** job concluded
  **warning** (millerchar.sp:15) pulse ving period too small, reset to   2.0050000E-10

   *** parameter drain =    2.150E+00 ***


          ***** job concluded
  **warning** (millerchar.sp:15) pulse ving period too small, reset to   2.0050000E-10

   *** parameter drain =    2.163E+00 ***


          ***** job concluded
  **warning** (millerchar.sp:15) pulse ving period too small, reset to   2.0050000E-10

   *** parameter drain =    2.175E+00 ***


          ***** job concluded
  **warning** (millerchar.sp:15) pulse ving period too small, reset to   2.0050000E-10

   *** parameter drain =    2.188E+00 ***


          ***** job concluded
  **warning** (millerchar.sp:15) pulse ving period too small, reset to   2.0050000E-10

   *** parameter drain =    2.200E+00 ***


          ***** job concluded
  **warning** (millerchar.sp:15) pulse ving period too small, reset to   2.0050000E-10

   *** parameter drain =    2.213E+00 ***


          ***** job concluded
  **warning** (millerchar.sp:15) pulse ving period too small, reset to   2.0050000E-10

   *** parameter drain =    2.225E+00 ***


          ***** job concluded
  **warning** (millerchar.sp:15) pulse ving period too small, reset to   2.0050000E-10

   *** parameter drain =    2.237E+00 ***


          ***** job concluded
  **warning** (millerchar.sp:15) pulse ving period too small, reset to   2.0050000E-10

   *** parameter drain =    2.250E+00 ***


          ***** job concluded
  **warning** (millerchar.sp:15) pulse ving period too small, reset to   2.0050000E-10

   *** parameter drain =    2.263E+00 ***


          ***** job concluded
  **warning** (millerchar.sp:15) pulse ving period too small, reset to   2.0050000E-10

   *** parameter drain =    2.275E+00 ***


          ***** job concluded
  **warning** (millerchar.sp:15) pulse ving period too small, reset to   2.0050000E-10

   *** parameter drain =    2.288E+00 ***


          ***** job concluded
  **warning** (millerchar.sp:15) pulse ving period too small, reset to   2.0050000E-10

   *** parameter drain =    2.300E+00 ***


          ***** job concluded
  **warning** (millerchar.sp:15) pulse ving period too small, reset to   2.0050000E-10

   *** parameter drain =    2.312E+00 ***


          ***** job concluded
  **warning** (millerchar.sp:15) pulse ving period too small, reset to   2.0050000E-10

   *** parameter drain =    2.325E+00 ***


          ***** job concluded
  **warning** (millerchar.sp:15) pulse ving period too small, reset to   2.0050000E-10

   *** parameter drain =    2.338E+00 ***


          ***** job concluded
  **warning** (millerchar.sp:15) pulse ving period too small, reset to   2.0050000E-10

   *** parameter drain =    2.350E+00 ***


          ***** job concluded
  **warning** (millerchar.sp:15) pulse ving period too small, reset to   2.0050000E-10

   *** parameter drain =    2.362E+00 ***


          ***** job concluded
  **warning** (millerchar.sp:15) pulse ving period too small, reset to   2.0050000E-10

   *** parameter drain =    2.375E+00 ***


          ***** job concluded
  **warning** (millerchar.sp:15) pulse ving period too small, reset to   2.0050000E-10

   *** parameter drain =    2.388E+00 ***


          ***** job concluded
  **warning** (millerchar.sp:15) pulse ving period too small, reset to   2.0050000E-10

   *** parameter drain =    2.400E+00 ***


          ***** job concluded
  **warning** (millerchar.sp:15) pulse ving period too small, reset to   2.0050000E-10

   *** parameter drain =    2.413E+00 ***


          ***** job concluded
  **warning** (millerchar.sp:15) pulse ving period too small, reset to   2.0050000E-10

   *** parameter drain =    2.425E+00 ***


          ***** job concluded
  **warning** (millerchar.sp:15) pulse ving period too small, reset to   2.0050000E-10

   *** parameter drain =    2.438E+00 ***


          ***** job concluded
  **warning** (millerchar.sp:15) pulse ving period too small, reset to   2.0050000E-10

   *** parameter drain =    2.450E+00 ***


          ***** job concluded
  **warning** (millerchar.sp:15) pulse ving period too small, reset to   2.0050000E-10

   *** parameter drain =    2.463E+00 ***


          ***** job concluded
  **warning** (millerchar.sp:15) pulse ving period too small, reset to   2.0050000E-10

   *** parameter drain =    2.475E+00 ***


          ***** job concluded
  **warning** (millerchar.sp:15) pulse ving period too small, reset to   2.0050000E-10

   *** parameter drain =    2.487E+00 ***


          ***** job concluded
  **warning** (millerchar.sp:15) pulse ving period too small, reset to   2.0050000E-10

   *** parameter drain =    2.500E+00 ***


          ***** job concluded
1****** HSPICE -- F-2011.09 32-BIT (Sep  5 2011) linux ******                   
 ******  
 $ miller capacitance characterization

  ******  job statistics summary tnom=  25.000 temp=  25.000 *****
  
  
 ******  Machine Information  ******
 CPU:
 model name	: Intel(R) Xeon(R) CPU           E5520  @ 2.27GHz
 cpu MHz	: 2260.871
  
 OS:
 Linux version 3.16.0-4-amd64 (debian-kernel@lists.debian.org) (gcc version 4.8.
 4 (Debian 4.8.4-1) ) #1 SMP Debian 3.16.7-ckt9-3~deb8u1 (2015-04-24)


  ******  HSPICE Threads Information  ******

  Command Line Threads Count :     1
  Available CPU Count        :    16
  Actual Threads Count       :     1


  ******  Circuit Statistics  ******
  # nodes       =       8 # elements   =       5
  # resistors   =       1 # capacitors =       0 # inductors   =       0
  # mutual_inds =       0 # vccs       =       0 # vcvs        =       0
  # cccs        =       0 # ccvs       =       0 # volt_srcs   =       3
  # curr_srcs   =       0 # diodes     =       0 # bjts        =       0
  # jfets       =       0 # mosfets    =       1 # U elements  =       0
  # T elements  =       0 # W elements =       0 # B elements  =       0
  # S elements  =       0 # P elements =       0 # va device   =       0
  # vector_srcs =       0


  ******  Runtime Statistics (seconds)  ******

  analysis           time    # points   tot. iter  conv.iter
  op point           0.02           1        2627
  transient          0.46       72561       30825        8428 rev=       158
  readin             0.00
  errchk             0.02
  setup              0.00
  output             0.00


           peak memory used         84.90 megabytes
           total cpu time            0.52 seconds
           total elapsed time        0.76 seconds
           job started at     19:48:00 12/20/2015
           job ended   at     19:48:01 12/20/2015


 lic: Release hspice token(s) 
