***** HSPICE -- F-2011.09 32-BIT (Sep  5 2011) linux ******
 Input File: millerchar.sp
 lic: No 'setenv LM_LICENSE_FILE' in current environment'
 lic:
 lic: FLEXlm: v10.8
 lic: USER:   watkins              HOSTNAME: engr-e132-d10
 lic: HOSTID: 002564bd04da         PID:      11599
 lic: Using FLEXlm license file:
 lic: 28000@131.230.191.194
 lic: Checkout 1 hspice
 lic: License/Maintenance for hspice will expire on 30-dec-2015/2015.06
 lic: 1(in_use)/50(total) FLOATING license(s) on SERVER 131.230.191.194
 lic:
 init: begin read circuit files,  cpu clock=  4.00E-02
       option search   = /synopsys/HSPICE/hspice/parts/ad
       option search   = /synopsys/HSPICE/hspice/parts/ad
       option search   = /synopsys/HSPICE/hspice/parts/behave
       option search   = /synopsys/HSPICE/hspice/parts/bjt
       option search   = /synopsys/HSPICE/hspice/parts/burr_brn
       option search   = /synopsys/HSPICE/hspice/parts/comlinear
       option search   = /synopsys/HSPICE/hspice/parts/dio
       option search   = /synopsys/HSPICE/hspice/parts/fet
       option search   = /synopsys/HSPICE/hspice/parts/lin_tech
       option search   = /synopsys/HSPICE/hspice/parts/pci
       option search   = /synopsys/HSPICE/hspice/parts/signet
       option search   = /synopsys/HSPICE/hspice/parts/ti
       option search   = /synopsys/HSPICE/hspice/parts/tline
       option search   = /synopsys/HSPICE/hspice/parts/xilinx
       option runlvl
       option post
       option interp   =     1.00
 init: end read circuit files,  cpu clock=  4.00E-02 memory=    149 kb
 init: begin check errors,  cpu clock=  4.00E-02
 init: end check errors,  cpu clock=  6.00E-02 memory=    155 kb
 init: begin setup matrix, pivot=     0 cpu clock=  6.00E-02
       establish matrix -- done,  cpu clock=  6.00E-02 memory=    156 kb
       re-order matrix -- done,  cpu clock=  6.00E-02 memory=    157 kb
 init: end setup matrix,  cpu clock=  6.00E-02 memory=    167 kb
 sweep: parameter       parameter1       begin, #sweeps = 361
 parameter: drain           =   -2.00E+00
 dcop: begin dcop,  cpu clock=  6.00E-02
 dcop: end dcop,  cpu clock=  6.00E-02 memory=    167 kb  tot_iter=      21
 output: millerchar.tr0
 sweep: tran tran1    begin, stop_t=  1.00E-10 #sweeps= 201 cpu clock=  6.00E-02
 tran: time= 1.0200E-11 tot_iter=       7 conv_iter=       3 cpu clock= 6.00E-02
 tran: time= 2.0200E-11 tot_iter=      11 conv_iter=       5 cpu clock= 6.00E-02
 tran: time= 3.0200E-11 tot_iter=      15 conv_iter=       7 cpu clock= 6.00E-02
 tran: time= 4.0200E-11 tot_iter=      19 conv_iter=       9 cpu clock= 6.00E-02
 tran: time= 5.0200E-11 tot_iter=      23 conv_iter=      11 cpu clock= 6.00E-02
 tran: time= 6.0200E-11 tot_iter=      27 conv_iter=      13 cpu clock= 6.00E-02
 tran: time= 7.0200E-11 tot_iter=      31 conv_iter=      15 cpu clock= 6.00E-02
 tran: time= 8.0253E-11 tot_iter=     197 conv_iter=      21 cpu clock= 6.00E-02
 tran: time= 9.0254E-11 tot_iter=     389 conv_iter=      33 cpu clock= 6.00E-02
 tran: time= 1.0000E-10 tot_iter=     469 conv_iter=      38 cpu clock= 6.00E-02
 sweep: tran tran1    end,  cpu clock=  6.00E-02 memory=    167 kb
 parameter: drain           =   -1.99E+00
 dcop: begin dcop,  cpu clock=  6.00E-02
 dcop: end dcop,  cpu clock=  6.00E-02 memory=    167 kb  tot_iter=      42
 output: millerchar.tr0
 sweep: tran tran2    begin, stop_t=  1.00E-10 #sweeps= 201 cpu clock=  6.00E-02
 tran: time= 1.0200E-11 tot_iter=       7 conv_iter=       3 cpu clock= 6.00E-02
 tran: time= 2.0200E-11 tot_iter=      11 conv_iter=       5 cpu clock= 6.00E-02
 tran: time= 3.0200E-11 tot_iter=      15 conv_iter=       7 cpu clock= 6.00E-02
 tran: time= 4.0200E-11 tot_iter=      19 conv_iter=       9 cpu clock= 6.00E-02
 tran: time= 5.0200E-11 tot_iter=      23 conv_iter=      11 cpu clock= 6.00E-02
 tran: time= 6.0200E-11 tot_iter=      27 conv_iter=      13 cpu clock= 6.00E-02
 tran: time= 7.0200E-11 tot_iter=      31 conv_iter=      15 cpu clock= 6.00E-02
 tran: time= 8.1703E-11 tot_iter=     197 conv_iter=      21 cpu clock= 6.00E-02
 tran: time= 9.0306E-11 tot_iter=     325 conv_iter=      29 cpu clock= 6.00E-02
 tran: time= 1.0000E-10 tot_iter=     389 conv_iter=      33 cpu clock= 6.00E-02
 sweep: tran tran2    end,  cpu clock=  6.00E-02 memory=    167 kb
 parameter: drain           =   -1.98E+00
 dcop: begin dcop,  cpu clock=  6.00E-02
 dcop: end dcop,  cpu clock=  6.00E-02 memory=    167 kb  tot_iter=      63
 output: millerchar.tr0
 sweep: tran tran3    begin, stop_t=  1.00E-10 #sweeps= 201 cpu clock=  6.00E-02
 tran: time= 1.0200E-11 tot_iter=       7 conv_iter=       3 cpu clock= 6.00E-02
 tran: time= 2.0200E-11 tot_iter=      11 conv_iter=       5 cpu clock= 6.00E-02
 tran: time= 3.0200E-11 tot_iter=      15 conv_iter=       7 cpu clock= 6.00E-02
 tran: time= 4.0200E-11 tot_iter=      19 conv_iter=       9 cpu clock= 6.00E-02
 tran: time= 5.0200E-11 tot_iter=      23 conv_iter=      11 cpu clock= 6.00E-02
 tran: time= 6.0200E-11 tot_iter=      27 conv_iter=      13 cpu clock= 6.00E-02
 tran: time= 7.0200E-11 tot_iter=      31 conv_iter=      15 cpu clock= 6.00E-02
 tran: time= 8.0233E-11 tot_iter=     181 conv_iter=      20 cpu clock= 6.00E-02
 tran: time= 9.1943E-11 tot_iter=     245 conv_iter=      24 cpu clock= 6.00E-02
 tran: time= 1.0000E-10 tot_iter=     293 conv_iter=      27 cpu clock= 6.00E-02
 sweep: tran tran3    end,  cpu clock=  6.00E-02 memory=    167 kb
 parameter: drain           =   -1.96E+00
 dcop: begin dcop,  cpu clock=  6.00E-02
 dcop: end dcop,  cpu clock=  6.00E-02 memory=    167 kb  tot_iter=      84
 output: millerchar.tr0
 sweep: tran tran4    begin, stop_t=  1.00E-10 #sweeps= 201 cpu clock=  6.00E-02
 tran: time= 1.0200E-11 tot_iter=       7 conv_iter=       3 cpu clock= 6.00E-02
 tran: time= 2.0200E-11 tot_iter=      11 conv_iter=       5 cpu clock= 6.00E-02
 tran: time= 3.0200E-11 tot_iter=      15 conv_iter=       7 cpu clock= 6.00E-02
 tran: time= 4.0200E-11 tot_iter=      19 conv_iter=       9 cpu clock= 6.00E-02
 tran: time= 5.0200E-11 tot_iter=      23 conv_iter=      11 cpu clock= 6.00E-02
 tran: time= 6.0200E-11 tot_iter=      27 conv_iter=      13 cpu clock= 6.00E-02
 tran: time= 7.0200E-11 tot_iter=      31 conv_iter=      15 cpu clock= 6.00E-02
 tran: time= 8.1350E-11 tot_iter=     181 conv_iter=      20 cpu clock= 6.00E-02
 tran: time= 9.1250E-11 tot_iter=     229 conv_iter=      23 cpu clock= 6.00E-02
 tran: time= 1.0000E-10 tot_iter=     373 conv_iter=      32 cpu clock= 8.00E-02
 sweep: tran tran4    end,  cpu clock=  8.00E-02 memory=    167 kb
 parameter: drain           =   -1.95E+00
 dcop: begin dcop,  cpu clock=  8.00E-02
 dcop: end dcop,  cpu clock=  8.00E-02 memory=    167 kb  tot_iter=     105
 output: millerchar.tr0
 sweep: tran tran5    begin, stop_t=  1.00E-10 #sweeps= 201 cpu clock=  8.00E-02
 tran: time= 1.0200E-11 tot_iter=       7 conv_iter=       3 cpu clock= 8.00E-02
 tran: time= 2.0200E-11 tot_iter=      11 conv_iter=       5 cpu clock= 8.00E-02
 tran: time= 3.0200E-11 tot_iter=      15 conv_iter=       7 cpu clock= 8.00E-02
 tran: time= 4.0200E-11 tot_iter=      19 conv_iter=       9 cpu clock= 8.00E-02
 tran: time= 5.0200E-11 tot_iter=      23 conv_iter=      11 cpu clock= 8.00E-02
 tran: time= 6.0200E-11 tot_iter=      27 conv_iter=      13 cpu clock= 8.00E-02
 tran: time= 7.0200E-11 tot_iter=      31 conv_iter=      15 cpu clock= 8.00E-02
 tran: time= 8.1395E-11 tot_iter=     333 conv_iter=      24 cpu clock= 8.00E-02
 tran: time= 9.8207E-11 tot_iter=     573 conv_iter=      39 cpu clock= 8.00E-02
 tran: time= 1.0000E-10 tot_iter=     581 conv_iter=      40 cpu clock= 8.00E-02
 sweep: tran tran5    end,  cpu clock=  8.00E-02 memory=    167 kb
 parameter: drain           =   -1.94E+00
 dcop: begin dcop,  cpu clock=  8.00E-02
 dcop: end dcop,  cpu clock=  8.00E-02 memory=    167 kb  tot_iter=     126
 output: millerchar.tr0
 sweep: tran tran6    begin, stop_t=  1.00E-10 #sweeps= 201 cpu clock=  8.00E-02
 tran: time= 1.0200E-11 tot_iter=       7 conv_iter=       3 cpu clock= 8.00E-02
 tran: time= 2.0200E-11 tot_iter=      11 conv_iter=       5 cpu clock= 8.00E-02
 tran: time= 3.0200E-11 tot_iter=      15 conv_iter=       7 cpu clock= 8.00E-02
 tran: time= 4.0200E-11 tot_iter=      19 conv_iter=       9 cpu clock= 8.00E-02
 tran: time= 5.0200E-11 tot_iter=      23 conv_iter=      11 cpu clock= 8.00E-02
 tran: time= 6.0200E-11 tot_iter=      27 conv_iter=      13 cpu clock= 8.00E-02
 tran: time= 7.0200E-11 tot_iter=      31 conv_iter=      15 cpu clock= 8.00E-02
 tran: time= 8.0200E-11 tot_iter=      39 conv_iter=      17 cpu clock= 8.00E-02
 tran: time= 9.7401E-11 tot_iter=     411 conv_iter=      32 cpu clock= 8.00E-02
 tran: time= 1.0000E-10 tot_iter=     419 conv_iter=      33 cpu clock= 8.00E-02
 sweep: tran tran6    end,  cpu clock=  8.00E-02 memory=    167 kb
 parameter: drain           =   -1.93E+00
 dcop: begin dcop,  cpu clock=  8.00E-02
 dcop: end dcop,  cpu clock=  8.00E-02 memory=    167 kb  tot_iter=     147
 output: millerchar.tr0
 sweep: tran tran7    begin, stop_t=  1.00E-10 #sweeps= 201 cpu clock=  8.00E-02
 tran: time= 1.0200E-11 tot_iter=       7 conv_iter=       3 cpu clock= 8.00E-02
 tran: time= 2.0200E-11 tot_iter=      11 conv_iter=       5 cpu clock= 8.00E-02
 tran: time= 3.0200E-11 tot_iter=      15 conv_iter=       7 cpu clock= 8.00E-02
 tran: time= 4.0200E-11 tot_iter=      19 conv_iter=       9 cpu clock= 8.00E-02
 tran: time= 5.0200E-11 tot_iter=      23 conv_iter=      11 cpu clock= 8.00E-02
 tran: time= 6.0200E-11 tot_iter=      27 conv_iter=      13 cpu clock= 8.00E-02
 tran: time= 7.0200E-11 tot_iter=      31 conv_iter=      15 cpu clock= 8.00E-02
 tran: time= 8.0200E-11 tot_iter=      37 conv_iter=      17 cpu clock= 8.00E-02
 tran: time= 9.6012E-11 tot_iter=     440 conv_iter=      34 cpu clock= 8.00E-02
 tran: time= 1.0000E-10 tot_iter=     448 conv_iter=      35 cpu clock= 8.00E-02
 sweep: tran tran7    end,  cpu clock=  8.00E-02 memory=    167 kb
 parameter: drain           =   -1.91E+00
 dcop: begin dcop,  cpu clock=  8.00E-02
 dcop: end dcop,  cpu clock=  8.00E-02 memory=    167 kb  tot_iter=     168
 output: millerchar.tr0
 sweep: tran tran8    begin, stop_t=  1.00E-10 #sweeps= 201 cpu clock=  8.00E-02
 tran: time= 1.0200E-11 tot_iter=       7 conv_iter=       3 cpu clock= 8.00E-02
 tran: time= 2.0200E-11 tot_iter=      11 conv_iter=       5 cpu clock= 8.00E-02
 tran: time= 3.0200E-11 tot_iter=      15 conv_iter=       7 cpu clock= 8.00E-02
 tran: time= 4.0200E-11 tot_iter=      19 conv_iter=       9 cpu clock= 8.00E-02
 tran: time= 5.0200E-11 tot_iter=      23 conv_iter=      11 cpu clock= 8.00E-02
 tran: time= 6.0200E-11 tot_iter=      27 conv_iter=      13 cpu clock= 8.00E-02
 tran: time= 7.0200E-11 tot_iter=      31 conv_iter=      15 cpu clock= 8.00E-02
 tran: time= 8.0200E-11 tot_iter=      36 conv_iter=      17 cpu clock= 8.00E-02
 tran: time= 9.0565E-11 tot_iter=     344 conv_iter=      31 cpu clock= 8.00E-02
 tran: time= 1.0000E-10 tot_iter=     520 conv_iter=      39 cpu clock= 8.00E-02
 sweep: tran tran8    end,  cpu clock=  8.00E-02 memory=    167 kb
 parameter: drain           =   -1.90E+00
 dcop: begin dcop,  cpu clock=  8.00E-02
 dcop: end dcop,  cpu clock=  8.00E-02 memory=    167 kb  tot_iter=     189
 output: millerchar.tr0
 sweep: tran tran9    begin, stop_t=  1.00E-10 #sweeps= 201 cpu clock=  8.00E-02
 tran: time= 1.0200E-11 tot_iter=       7 conv_iter=       3 cpu clock= 8.00E-02
 tran: time= 2.0200E-11 tot_iter=      11 conv_iter=       5 cpu clock= 8.00E-02
 tran: time= 3.0200E-11 tot_iter=      15 conv_iter=       7 cpu clock= 8.00E-02
 tran: time= 4.0200E-11 tot_iter=      19 conv_iter=       9 cpu clock= 8.00E-02
 tran: time= 5.0200E-11 tot_iter=      23 conv_iter=      11 cpu clock= 8.00E-02
 tran: time= 6.0200E-11 tot_iter=      27 conv_iter=      13 cpu clock= 8.00E-02
 tran: time= 7.0200E-11 tot_iter=      31 conv_iter=      15 cpu clock= 8.00E-02
 tran: time= 8.0200E-11 tot_iter=      36 conv_iter=      17 cpu clock= 8.00E-02
 tran: time= 9.0025E-11 tot_iter=     311 conv_iter=      29 cpu clock= 1.00E-01
 tran: time= 1.0000E-10 tot_iter=     375 conv_iter=      33 cpu clock= 1.00E-01
 sweep: tran tran9    end,  cpu clock=  1.00E-01 memory=    167 kb
 parameter: drain           =   -1.89E+00
 dcop: begin dcop,  cpu clock=  1.00E-01
 dcop: end dcop,  cpu clock=  1.00E-01 memory=    167 kb  tot_iter=     210
 output: millerchar.tr0
 sweep: tran tran10   begin, stop_t=  1.00E-10 #sweeps= 201 cpu clock=  1.00E-01
 tran: time= 1.0200E-11 tot_iter=       7 conv_iter=       3 cpu clock= 1.00E-01
 tran: time= 2.0200E-11 tot_iter=      11 conv_iter=       5 cpu clock= 1.00E-01
 tran: time= 3.0200E-11 tot_iter=      15 conv_iter=       7 cpu clock= 1.00E-01
 tran: time= 4.0200E-11 tot_iter=      19 conv_iter=       9 cpu clock= 1.00E-01
 tran: time= 5.0200E-11 tot_iter=      23 conv_iter=      11 cpu clock= 1.00E-01
 tran: time= 6.0200E-11 tot_iter=      27 conv_iter=      13 cpu clock= 1.00E-01
 tran: time= 7.0200E-11 tot_iter=      31 conv_iter=      15 cpu clock= 1.00E-01
 tran: time= 8.0200E-11 tot_iter=      36 conv_iter=      17 cpu clock= 1.00E-01
 tran: time= 9.1912E-11 tot_iter=     247 conv_iter=      25 cpu clock= 1.00E-01
 tran: time= 1.0000E-10 tot_iter=     359 conv_iter=      32 cpu clock= 1.00E-01
 sweep: tran tran10   end,  cpu clock=  1.00E-01 memory=    167 kb
 parameter: drain           =   -1.88E+00
 dcop: begin dcop,  cpu clock=  1.00E-01
 dcop: end dcop,  cpu clock=  1.00E-01 memory=    167 kb  tot_iter=     231
 output: millerchar.tr0
 sweep: tran tran11   begin, stop_t=  1.00E-10 #sweeps= 201 cpu clock=  1.00E-01
 tran: time= 1.0200E-11 tot_iter=       7 conv_iter=       3 cpu clock= 1.00E-01
 tran: time= 2.0200E-11 tot_iter=      11 conv_iter=       5 cpu clock= 1.00E-01
 tran: time= 3.0200E-11 tot_iter=      15 conv_iter=       7 cpu clock= 1.00E-01
 tran: time= 4.0200E-11 tot_iter=      19 conv_iter=       9 cpu clock= 1.00E-01
 tran: time= 5.0200E-11 tot_iter=      23 conv_iter=      11 cpu clock= 1.00E-01
 tran: time= 6.0200E-11 tot_iter=      27 conv_iter=      13 cpu clock= 1.00E-01
 tran: time= 7.0200E-11 tot_iter=      31 conv_iter=      15 cpu clock= 1.00E-01
 tran: time= 8.0200E-11 tot_iter=      36 conv_iter=      17 cpu clock= 1.00E-01
 tran: time= 9.0262E-11 tot_iter=     327 conv_iter=      30 cpu clock= 1.00E-01
 tran: time= 1.0000E-10 tot_iter=     359 conv_iter=      32 cpu clock= 1.00E-01
 sweep: tran tran11   end,  cpu clock=  1.00E-01 memory=    167 kb
 parameter: drain           =   -1.86E+00
 dcop: begin dcop,  cpu clock=  1.00E-01
 dcop: end dcop,  cpu clock=  1.00E-01 memory=    167 kb  tot_iter=     251
 output: millerchar.tr0
 sweep: tran tran12   begin, stop_t=  1.00E-10 #sweeps= 201 cpu clock=  1.00E-01
 tran: time= 1.0200E-11 tot_iter=       7 conv_iter=       3 cpu clock= 1.00E-01
 tran: time= 2.0200E-11 tot_iter=      11 conv_iter=       5 cpu clock= 1.00E-01
 tran: time= 3.0200E-11 tot_iter=      15 conv_iter=       7 cpu clock= 1.00E-01
 tran: time= 4.0200E-11 tot_iter=      19 conv_iter=       9 cpu clock= 1.00E-01
 tran: time= 5.0200E-11 tot_iter=      23 conv_iter=      11 cpu clock= 1.00E-01
 tran: time= 6.0200E-11 tot_iter=      27 conv_iter=      13 cpu clock= 1.00E-01
 tran: time= 7.0200E-11 tot_iter=      31 conv_iter=      15 cpu clock= 1.00E-01
 tran: time= 8.0200E-11 tot_iter=      36 conv_iter=      17 cpu clock= 1.00E-01
 tran: time= 9.1240E-11 tot_iter=     215 conv_iter=      23 cpu clock= 1.00E-01
 tran: time= 1.0000E-10 tot_iter=     519 conv_iter=      42 cpu clock= 1.00E-01
 sweep: tran tran12   end,  cpu clock=  1.00E-01 memory=    167 kb
 parameter: drain           =   -1.85E+00
 dcop: begin dcop,  cpu clock=  1.00E-01
 dcop: end dcop,  cpu clock=  1.00E-01 memory=    167 kb  tot_iter=     271
 output: millerchar.tr0
 sweep: tran tran13   begin, stop_t=  1.00E-10 #sweeps= 201 cpu clock=  1.00E-01
 tran: time= 1.0200E-11 tot_iter=       7 conv_iter=       3 cpu clock= 1.00E-01
 tran: time= 2.0200E-11 tot_iter=      11 conv_iter=       5 cpu clock= 1.00E-01
 tran: time= 3.0200E-11 tot_iter=      15 conv_iter=       7 cpu clock= 1.00E-01
 tran: time= 4.0200E-11 tot_iter=      19 conv_iter=       9 cpu clock= 1.00E-01
 tran: time= 5.0200E-11 tot_iter=      23 conv_iter=      11 cpu clock= 1.00E-01
 tran: time= 6.0200E-11 tot_iter=      27 conv_iter=      13 cpu clock= 1.00E-01
 tran: time= 7.0200E-11 tot_iter=      31 conv_iter=      15 cpu clock= 1.00E-01
 tran: time= 8.0200E-11 tot_iter=      36 conv_iter=      17 cpu clock= 1.00E-01
 tran: time= 9.3151E-11 tot_iter=     215 conv_iter=      23 cpu clock= 1.00E-01
 tran: time= 1.0000E-10 tot_iter=     487 conv_iter=      37 cpu clock= 1.20E-01
 sweep: tran tran13   end,  cpu clock=  1.20E-01 memory=    167 kb
 parameter: drain           =   -1.84E+00
 dcop: begin dcop,  cpu clock=  1.20E-01
 dcop: end dcop,  cpu clock=  1.20E-01 memory=    167 kb  tot_iter=     291
 output: millerchar.tr0
 sweep: tran tran14   begin, stop_t=  1.00E-10 #sweeps= 201 cpu clock=  1.20E-01
 tran: time= 1.0200E-11 tot_iter=       7 conv_iter=       3 cpu clock= 1.20E-01
 tran: time= 2.0200E-11 tot_iter=      11 conv_iter=       5 cpu clock= 1.20E-01
 tran: time= 3.0200E-11 tot_iter=      15 conv_iter=       7 cpu clock= 1.20E-01
 tran: time= 4.0200E-11 tot_iter=      19 conv_iter=       9 cpu clock= 1.20E-01
 tran: time= 5.0200E-11 tot_iter=      23 conv_iter=      11 cpu clock= 1.20E-01
 tran: time= 6.0200E-11 tot_iter=      27 conv_iter=      13 cpu clock= 1.20E-01
 tran: time= 7.0200E-11 tot_iter=      31 conv_iter=      15 cpu clock= 1.20E-01
 tran: time= 8.0200E-11 tot_iter=      36 conv_iter=      17 cpu clock= 1.20E-01
 tran: time= 9.1387E-11 tot_iter=     198 conv_iter=      22 cpu clock= 1.20E-01
 tran: time= 1.0000E-10 tot_iter=     246 conv_iter=      25 cpu clock= 1.20E-01
 sweep: tran tran14   end,  cpu clock=  1.20E-01 memory=    167 kb
 parameter: drain           =   -1.82E+00
 dcop: begin dcop,  cpu clock=  1.20E-01
 dcop: end dcop,  cpu clock=  1.20E-01 memory=    167 kb  tot_iter=     311
 output: millerchar.tr0
 sweep: tran tran15   begin, stop_t=  1.00E-10 #sweeps= 201 cpu clock=  1.20E-01
 tran: time= 1.0200E-11 tot_iter=       7 conv_iter=       3 cpu clock= 1.20E-01
 tran: time= 2.0200E-11 tot_iter=      11 conv_iter=       5 cpu clock= 1.20E-01
 tran: time= 3.0200E-11 tot_iter=      15 conv_iter=       7 cpu clock= 1.20E-01
 tran: time= 4.0200E-11 tot_iter=      19 conv_iter=       9 cpu clock= 1.20E-01
 tran: time= 5.0200E-11 tot_iter=      23 conv_iter=      11 cpu clock= 1.20E-01
 tran: time= 6.0200E-11 tot_iter=      27 conv_iter=      13 cpu clock= 1.20E-01
 tran: time= 7.0200E-11 tot_iter=      31 conv_iter=      15 cpu clock= 1.20E-01
 tran: time= 8.0200E-11 tot_iter=      36 conv_iter=      17 cpu clock= 1.20E-01
 tran: time= 9.0424E-11 tot_iter=     366 conv_iter=      30 cpu clock= 1.20E-01
 tran: time= 1.0000E-10 tot_iter=     414 conv_iter=      33 cpu clock= 1.20E-01
 sweep: tran tran15   end,  cpu clock=  1.20E-01 memory=    167 kb
 parameter: drain           =   -1.81E+00
 dcop: begin dcop,  cpu clock=  1.20E-01
 dcop: end dcop,  cpu clock=  1.20E-01 memory=    167 kb  tot_iter=     331
 output: millerchar.tr0
 sweep: tran tran16   begin, stop_t=  1.00E-10 #sweeps= 201 cpu clock=  1.20E-01
 tran: time= 1.0200E-11 tot_iter=       7 conv_iter=       3 cpu clock= 1.20E-01
 tran: time= 2.0200E-11 tot_iter=      11 conv_iter=       5 cpu clock= 1.20E-01
 tran: time= 3.0200E-11 tot_iter=      15 conv_iter=       7 cpu clock= 1.20E-01
 tran: time= 4.0200E-11 tot_iter=      19 conv_iter=       9 cpu clock= 1.20E-01
 tran: time= 5.0200E-11 tot_iter=      23 conv_iter=      11 cpu clock= 1.20E-01
 tran: time= 6.0200E-11 tot_iter=      27 conv_iter=      13 cpu clock= 1.20E-01
 tran: time= 7.0200E-11 tot_iter=      31 conv_iter=      15 cpu clock= 1.20E-01
 tran: time= 8.0200E-11 tot_iter=      35 conv_iter=      17 cpu clock= 1.20E-01
 tran: time= 9.0512E-11 tot_iter=     362 conv_iter=      30 cpu clock= 1.20E-01
 tran: time= 1.0000E-10 tot_iter=     410 conv_iter=      33 cpu clock= 1.20E-01
 sweep: tran tran16   end,  cpu clock=  1.20E-01 memory=    167 kb
 parameter: drain           =   -1.80E+00
 dcop: begin dcop,  cpu clock=  1.20E-01
 dcop: end dcop,  cpu clock=  1.20E-01 memory=    167 kb  tot_iter=     351
 output: millerchar.tr0
 sweep: tran tran17   begin, stop_t=  1.00E-10 #sweeps= 201 cpu clock=  1.20E-01
 tran: time= 1.0200E-11 tot_iter=       7 conv_iter=       3 cpu clock= 1.20E-01
 tran: time= 2.0200E-11 tot_iter=      11 conv_iter=       5 cpu clock= 1.20E-01
 tran: time= 3.0200E-11 tot_iter=      15 conv_iter=       7 cpu clock= 1.20E-01
 tran: time= 4.0200E-11 tot_iter=      19 conv_iter=       9 cpu clock= 1.20E-01
 tran: time= 5.0200E-11 tot_iter=      23 conv_iter=      11 cpu clock= 1.20E-01
 tran: time= 6.0200E-11 tot_iter=      27 conv_iter=      13 cpu clock= 1.20E-01
 tran: time= 7.0200E-11 tot_iter=      31 conv_iter=      15 cpu clock= 1.20E-01
 tran: time= 8.0200E-11 tot_iter=      35 conv_iter=      17 cpu clock= 1.20E-01
 tran: time= 9.0386E-11 tot_iter=     314 conv_iter=      30 cpu clock= 1.20E-01
 tran: time= 1.0000E-10 tot_iter=     410 conv_iter=      36 cpu clock= 1.20E-01
 sweep: tran tran17   end,  cpu clock=  1.40E-01 memory=    167 kb
 parameter: drain           =   -1.79E+00
 dcop: begin dcop,  cpu clock=  1.40E-01
 dcop: end dcop,  cpu clock=  1.40E-01 memory=    167 kb  tot_iter=     371
 output: millerchar.tr0
 sweep: tran tran18   begin, stop_t=  1.00E-10 #sweeps= 201 cpu clock=  1.40E-01
 tran: time= 1.0200E-11 tot_iter=       7 conv_iter=       3 cpu clock= 1.40E-01
 tran: time= 2.0200E-11 tot_iter=      11 conv_iter=       5 cpu clock= 1.40E-01
 tran: time= 3.0200E-11 tot_iter=      15 conv_iter=       7 cpu clock= 1.40E-01
 tran: time= 4.0200E-11 tot_iter=      19 conv_iter=       9 cpu clock= 1.40E-01
 tran: time= 5.0200E-11 tot_iter=      23 conv_iter=      11 cpu clock= 1.40E-01
 tran: time= 6.0200E-11 tot_iter=      27 conv_iter=      13 cpu clock= 1.40E-01
 tran: time= 7.0200E-11 tot_iter=      31 conv_iter=      15 cpu clock= 1.40E-01
 tran: time= 8.0200E-11 tot_iter=      35 conv_iter=      17 cpu clock= 1.40E-01
 tran: time= 9.0844E-11 tot_iter=     217 conv_iter=      24 cpu clock= 1.40E-01
 tran: time= 1.0000E-10 tot_iter=     361 conv_iter=      33 cpu clock= 1.40E-01
 sweep: tran tran18   end,  cpu clock=  1.40E-01 memory=    167 kb
 parameter: drain           =   -1.77E+00
 dcop: begin dcop,  cpu clock=  1.40E-01
 dcop: end dcop,  cpu clock=  1.40E-01 memory=    167 kb  tot_iter=     391
 output: millerchar.tr0
 sweep: tran tran19   begin, stop_t=  1.00E-10 #sweeps= 201 cpu clock=  1.40E-01
 tran: time= 1.0200E-11 tot_iter=       7 conv_iter=       3 cpu clock= 1.40E-01
 tran: time= 2.0200E-11 tot_iter=      11 conv_iter=       5 cpu clock= 1.40E-01
 tran: time= 3.0200E-11 tot_iter=      15 conv_iter=       7 cpu clock= 1.40E-01
 tran: time= 4.0200E-11 tot_iter=      19 conv_iter=       9 cpu clock= 1.40E-01
 tran: time= 5.0200E-11 tot_iter=      23 conv_iter=      11 cpu clock= 1.40E-01
 tran: time= 6.0200E-11 tot_iter=      27 conv_iter=      13 cpu clock= 1.40E-01
 tran: time= 7.0200E-11 tot_iter=      31 conv_iter=      15 cpu clock= 1.40E-01
 tran: time= 8.0200E-11 tot_iter=      35 conv_iter=      17 cpu clock= 1.40E-01
 tran: time= 9.0541E-11 tot_iter=     201 conv_iter=      23 cpu clock= 1.40E-01
 tran: time= 1.0000E-10 tot_iter=     409 conv_iter=      36 cpu clock= 1.40E-01
 sweep: tran tran19   end,  cpu clock=  1.40E-01 memory=    167 kb
 parameter: drain           =   -1.76E+00
 dcop: begin dcop,  cpu clock=  1.40E-01
 dcop: end dcop,  cpu clock=  1.40E-01 memory=    167 kb  tot_iter=     411
 output: millerchar.tr0
 sweep: tran tran20   begin, stop_t=  1.00E-10 #sweeps= 201 cpu clock=  1.40E-01
 tran: time= 1.0200E-11 tot_iter=       7 conv_iter=       3 cpu clock= 1.40E-01
 tran: time= 2.0200E-11 tot_iter=      11 conv_iter=       5 cpu clock= 1.40E-01
 tran: time= 3.0200E-11 tot_iter=      15 conv_iter=       7 cpu clock= 1.40E-01
 tran: time= 4.0200E-11 tot_iter=      19 conv_iter=       9 cpu clock= 1.40E-01
 tran: time= 5.0200E-11 tot_iter=      23 conv_iter=      11 cpu clock= 1.40E-01
 tran: time= 6.0200E-11 tot_iter=      27 conv_iter=      13 cpu clock= 1.40E-01
 tran: time= 7.0200E-11 tot_iter=      31 conv_iter=      15 cpu clock= 1.40E-01
 tran: time= 8.0200E-11 tot_iter=      35 conv_iter=      17 cpu clock= 1.40E-01
 tran: time= 9.0020E-11 tot_iter=     297 conv_iter=      29 cpu clock= 1.40E-01
 tran: time= 1.0000E-10 tot_iter=     377 conv_iter=      34 cpu clock= 1.40E-01
 sweep: tran tran20   end,  cpu clock=  1.40E-01 memory=    167 kb
 parameter: drain           =   -1.75E+00
 dcop: begin dcop,  cpu clock=  1.40E-01
 dcop: end dcop,  cpu clock=  1.40E-01 memory=    167 kb  tot_iter=     430
 output: millerchar.tr0
 sweep: tran tran21   begin, stop_t=  1.00E-10 #sweeps= 201 cpu clock=  1.40E-01
 tran: time= 1.0200E-11 tot_iter=       7 conv_iter=       3 cpu clock= 1.40E-01
 tran: time= 2.0200E-11 tot_iter=      11 conv_iter=       5 cpu clock= 1.40E-01
 tran: time= 3.0200E-11 tot_iter=      15 conv_iter=       7 cpu clock= 1.40E-01
 tran: time= 4.0200E-11 tot_iter=      19 conv_iter=       9 cpu clock= 1.40E-01
 tran: time= 5.0200E-11 tot_iter=      23 conv_iter=      11 cpu clock= 1.40E-01
 tran: time= 6.0200E-11 tot_iter=      27 conv_iter=      13 cpu clock= 1.40E-01
 tran: time= 7.0200E-11 tot_iter=      31 conv_iter=      15 cpu clock= 1.40E-01
 tran: time= 8.0200E-11 tot_iter=      35 conv_iter=      17 cpu clock= 1.40E-01
 tran: time= 9.0572E-11 tot_iter=     185 conv_iter=      22 cpu clock= 1.40E-01
 tran: time= 1.0000E-10 tot_iter=     377 conv_iter=      34 cpu clock= 1.40E-01
 sweep: tran tran21   end,  cpu clock=  1.40E-01 memory=    167 kb
 parameter: drain           =   -1.74E+00
 dcop: begin dcop,  cpu clock=  1.40E-01
 dcop: end dcop,  cpu clock=  1.40E-01 memory=    167 kb  tot_iter=     449
 output: millerchar.tr0
 sweep: tran tran22   begin, stop_t=  1.00E-10 #sweeps= 201 cpu clock=  1.40E-01
 tran: time= 1.0200E-11 tot_iter=       7 conv_iter=       3 cpu clock= 1.40E-01
 tran: time= 2.0200E-11 tot_iter=      11 conv_iter=       5 cpu clock= 1.40E-01
 tran: time= 3.0200E-11 tot_iter=      15 conv_iter=       7 cpu clock= 1.40E-01
 tran: time= 4.0200E-11 tot_iter=      19 conv_iter=       9 cpu clock= 1.40E-01
 tran: time= 5.0200E-11 tot_iter=      23 conv_iter=      11 cpu clock= 1.40E-01
 tran: time= 6.0200E-11 tot_iter=      27 conv_iter=      13 cpu clock= 1.40E-01
 tran: time= 7.0200E-11 tot_iter=      31 conv_iter=      15 cpu clock= 1.40E-01
 tran: time= 8.0200E-11 tot_iter=      35 conv_iter=      17 cpu clock= 1.40E-01
 tran: time= 9.0741E-11 tot_iter=     265 conv_iter=      27 cpu clock= 1.60E-01
 tran: time= 1.0000E-10 tot_iter=     393 conv_iter=      35 cpu clock= 1.60E-01
 sweep: tran tran22   end,  cpu clock=  1.60E-01 memory=    167 kb
 parameter: drain           =   -1.73E+00
 dcop: begin dcop,  cpu clock=  1.60E-01
 dcop: end dcop,  cpu clock=  1.60E-01 memory=    167 kb  tot_iter=     468
 output: millerchar.tr0
 sweep: tran tran23   begin, stop_t=  1.00E-10 #sweeps= 201 cpu clock=  1.60E-01
 tran: time= 1.0200E-11 tot_iter=       7 conv_iter=       3 cpu clock= 1.60E-01
 tran: time= 2.0200E-11 tot_iter=      11 conv_iter=       5 cpu clock= 1.60E-01
 tran: time= 3.0200E-11 tot_iter=      15 conv_iter=       7 cpu clock= 1.60E-01
 tran: time= 4.0200E-11 tot_iter=      19 conv_iter=       9 cpu clock= 1.60E-01
 tran: time= 5.0200E-11 tot_iter=      23 conv_iter=      11 cpu clock= 1.60E-01
 tran: time= 6.0200E-11 tot_iter=      27 conv_iter=      13 cpu clock= 1.60E-01
 tran: time= 7.0200E-11 tot_iter=      31 conv_iter=      15 cpu clock= 1.60E-01
 tran: time= 8.0200E-11 tot_iter=      35 conv_iter=      17 cpu clock= 1.60E-01
 tran: time= 9.0200E-11 tot_iter=      48 conv_iter=      19 cpu clock= 1.60E-01
 tran: time= 1.0000E-10 tot_iter=     352 conv_iter=      29 cpu clock= 1.60E-01
 sweep: tran tran23   end,  cpu clock=  1.60E-01 memory=    167 kb
 parameter: drain           =   -1.71E+00
 dcop: begin dcop,  cpu clock=  1.60E-01
 dcop: end dcop,  cpu clock=  1.60E-01 memory=    167 kb  tot_iter=     487
 output: millerchar.tr0
 sweep: tran tran24   begin, stop_t=  1.00E-10 #sweeps= 201 cpu clock=  1.60E-01
 tran: time= 1.0200E-11 tot_iter=       7 conv_iter=       3 cpu clock= 1.60E-01
 tran: time= 2.0200E-11 tot_iter=      11 conv_iter=       5 cpu clock= 1.60E-01
 tran: time= 3.0200E-11 tot_iter=      15 conv_iter=       7 cpu clock= 1.60E-01
 tran: time= 4.0200E-11 tot_iter=      19 conv_iter=       9 cpu clock= 1.60E-01
 tran: time= 5.0200E-11 tot_iter=      23 conv_iter=      11 cpu clock= 1.60E-01
 tran: time= 6.0200E-11 tot_iter=      27 conv_iter=      13 cpu clock= 1.60E-01
 tran: time= 7.0200E-11 tot_iter=      31 conv_iter=      15 cpu clock= 1.60E-01
 tran: time= 8.0200E-11 tot_iter=      35 conv_iter=      17 cpu clock= 1.60E-01
 tran: time= 9.0200E-11 tot_iter=      43 conv_iter=      19 cpu clock= 1.60E-01
 tran: time= 1.0000E-10 tot_iter=     494 conv_iter=      39 cpu clock= 1.60E-01
 sweep: tran tran24   end,  cpu clock=  1.60E-01 memory=    167 kb
 parameter: drain           =   -1.70E+00
 dcop: begin dcop,  cpu clock=  1.60E-01
 dcop: end dcop,  cpu clock=  1.60E-01 memory=    167 kb  tot_iter=     506
 output: millerchar.tr0
 sweep: tran tran25   begin, stop_t=  1.00E-10 #sweeps= 201 cpu clock=  1.60E-01
 tran: time= 1.0200E-11 tot_iter=       7 conv_iter=       3 cpu clock= 1.60E-01
 tran: time= 2.0200E-11 tot_iter=      11 conv_iter=       5 cpu clock= 1.60E-01
 tran: time= 3.0200E-11 tot_iter=      15 conv_iter=       7 cpu clock= 1.60E-01
 tran: time= 4.0200E-11 tot_iter=      19 conv_iter=       9 cpu clock= 1.60E-01
 tran: time= 5.0200E-11 tot_iter=      23 conv_iter=      11 cpu clock= 1.60E-01
 tran: time= 6.0200E-11 tot_iter=      27 conv_iter=      13 cpu clock= 1.60E-01
 tran: time= 7.0200E-11 tot_iter=      31 conv_iter=      15 cpu clock= 1.60E-01
 tran: time= 8.0200E-11 tot_iter=      35 conv_iter=      17 cpu clock= 1.60E-01
 tran: time= 9.0200E-11 tot_iter=      41 conv_iter=      19 cpu clock= 1.60E-01
 tran: time= 1.0000E-10 tot_iter=     428 conv_iter=      35 cpu clock= 1.60E-01
 sweep: tran tran25   end,  cpu clock=  1.60E-01 memory=    167 kb
 parameter: drain           =   -1.69E+00
 dcop: begin dcop,  cpu clock=  1.60E-01
 dcop: end dcop,  cpu clock=  1.60E-01 memory=    167 kb  tot_iter=     525
 output: millerchar.tr0
 sweep: tran tran26   begin, stop_t=  1.00E-10 #sweeps= 201 cpu clock=  1.60E-01
 tran: time= 1.0200E-11 tot_iter=       7 conv_iter=       3 cpu clock= 1.60E-01
 tran: time= 2.0200E-11 tot_iter=      11 conv_iter=       5 cpu clock= 1.60E-01
 tran: time= 3.0200E-11 tot_iter=      15 conv_iter=       7 cpu clock= 1.60E-01
 tran: time= 4.0200E-11 tot_iter=      19 conv_iter=       9 cpu clock= 1.60E-01
 tran: time= 5.0200E-11 tot_iter=      23 conv_iter=      11 cpu clock= 1.60E-01
 tran: time= 6.0200E-11 tot_iter=      27 conv_iter=      13 cpu clock= 1.60E-01
 tran: time= 7.0200E-11 tot_iter=      31 conv_iter=      15 cpu clock= 1.60E-01
 tran: time= 8.0200E-11 tot_iter=      35 conv_iter=      17 cpu clock= 1.60E-01
 tran: time= 9.0200E-11 tot_iter=      40 conv_iter=      19 cpu clock= 1.60E-01
 tran: time= 1.0000E-10 tot_iter=     284 conv_iter=      29 cpu clock= 1.60E-01
 sweep: tran tran26   end,  cpu clock=  1.60E-01 memory=    167 kb
 parameter: drain           =   -1.68E+00
 dcop: begin dcop,  cpu clock=  1.60E-01
 dcop: end dcop,  cpu clock=  1.60E-01 memory=    167 kb  tot_iter=     544
 output: millerchar.tr0
 sweep: tran tran27   begin, stop_t=  1.00E-10 #sweeps= 201 cpu clock=  1.60E-01
 tran: time= 1.0200E-11 tot_iter=       7 conv_iter=       3 cpu clock= 1.60E-01
 tran: time= 2.0200E-11 tot_iter=      11 conv_iter=       5 cpu clock= 1.60E-01
 tran: time= 3.0200E-11 tot_iter=      15 conv_iter=       7 cpu clock= 1.60E-01
 tran: time= 4.0200E-11 tot_iter=      19 conv_iter=       9 cpu clock= 1.60E-01
 tran: time= 5.0200E-11 tot_iter=      23 conv_iter=      11 cpu clock= 1.60E-01
 tran: time= 6.0200E-11 tot_iter=      27 conv_iter=      13 cpu clock= 1.60E-01
 tran: time= 7.0200E-11 tot_iter=      31 conv_iter=      15 cpu clock= 1.60E-01
 tran: time= 8.0200E-11 tot_iter=      35 conv_iter=      17 cpu clock= 1.60E-01
 tran: time= 9.0200E-11 tot_iter=      40 conv_iter=      19 cpu clock= 1.60E-01
 tran: time= 1.0000E-10 tot_iter=     251 conv_iter=      27 cpu clock= 1.60E-01
 sweep: tran tran27   end,  cpu clock=  1.80E-01 memory=    167 kb
 parameter: drain           =   -1.66E+00
 dcop: begin dcop,  cpu clock=  1.80E-01
 dcop: end dcop,  cpu clock=  1.80E-01 memory=    167 kb  tot_iter=     563
 output: millerchar.tr0
 sweep: tran tran28   begin, stop_t=  1.00E-10 #sweeps= 201 cpu clock=  1.80E-01
 tran: time= 1.0200E-11 tot_iter=       7 conv_iter=       3 cpu clock= 1.80E-01
 tran: time= 2.0200E-11 tot_iter=      11 conv_iter=       5 cpu clock= 1.80E-01
 tran: time= 3.0200E-11 tot_iter=      15 conv_iter=       7 cpu clock= 1.80E-01
 tran: time= 4.0200E-11 tot_iter=      19 conv_iter=       9 cpu clock= 1.80E-01
 tran: time= 5.0200E-11 tot_iter=      23 conv_iter=      11 cpu clock= 1.80E-01
 tran: time= 6.0200E-11 tot_iter=      27 conv_iter=      13 cpu clock= 1.80E-01
 tran: time= 7.0200E-11 tot_iter=      31 conv_iter=      15 cpu clock= 1.80E-01
 tran: time= 8.0200E-11 tot_iter=      35 conv_iter=      17 cpu clock= 1.80E-01
 tran: time= 9.0200E-11 tot_iter=      40 conv_iter=      19 cpu clock= 1.80E-01
 tran: time= 1.0000E-10 tot_iter=     363 conv_iter=      34 cpu clock= 1.80E-01
 sweep: tran tran28   end,  cpu clock=  1.80E-01 memory=    167 kb
 parameter: drain           =   -1.65E+00
 dcop: begin dcop,  cpu clock=  1.80E-01
 dcop: end dcop,  cpu clock=  1.80E-01 memory=    167 kb  tot_iter=     582
 output: millerchar.tr0
 sweep: tran tran29   begin, stop_t=  1.00E-10 #sweeps= 201 cpu clock=  1.80E-01
 tran: time= 1.0200E-11 tot_iter=       7 conv_iter=       3 cpu clock= 1.80E-01
 tran: time= 2.0200E-11 tot_iter=      11 conv_iter=       5 cpu clock= 1.80E-01
 tran: time= 3.0200E-11 tot_iter=      15 conv_iter=       7 cpu clock= 1.80E-01
 tran: time= 4.0200E-11 tot_iter=      19 conv_iter=       9 cpu clock= 1.80E-01
 tran: time= 5.0200E-11 tot_iter=      23 conv_iter=      11 cpu clock= 1.80E-01
 tran: time= 6.0200E-11 tot_iter=      27 conv_iter=      13 cpu clock= 1.80E-01
 tran: time= 7.0200E-11 tot_iter=      31 conv_iter=      15 cpu clock= 1.80E-01
 tran: time= 8.0200E-11 tot_iter=      35 conv_iter=      17 cpu clock= 1.80E-01
 tran: time= 9.0200E-11 tot_iter=      40 conv_iter=      19 cpu clock= 1.80E-01
 tran: time= 1.0000E-10 tot_iter=     347 conv_iter=      33 cpu clock= 1.80E-01
 sweep: tran tran29   end,  cpu clock=  1.80E-01 memory=    167 kb
 parameter: drain           =   -1.64E+00
 dcop: begin dcop,  cpu clock=  1.80E-01
 dcop: end dcop,  cpu clock=  1.80E-01 memory=    167 kb  tot_iter=     600
 output: millerchar.tr0
 sweep: tran tran30   begin, stop_t=  1.00E-10 #sweeps= 201 cpu clock=  1.80E-01
 tran: time= 1.0200E-11 tot_iter=       7 conv_iter=       3 cpu clock= 1.80E-01
 tran: time= 2.0200E-11 tot_iter=      11 conv_iter=       5 cpu clock= 1.80E-01
 tran: time= 3.0200E-11 tot_iter=      15 conv_iter=       7 cpu clock= 1.80E-01
 tran: time= 4.0200E-11 tot_iter=      19 conv_iter=       9 cpu clock= 1.80E-01
 tran: time= 5.0200E-11 tot_iter=      23 conv_iter=      11 cpu clock= 1.80E-01
 tran: time= 6.0200E-11 tot_iter=      27 conv_iter=      13 cpu clock= 1.80E-01
 tran: time= 7.0200E-11 tot_iter=      31 conv_iter=      15 cpu clock= 1.80E-01
 tran: time= 8.0200E-11 tot_iter=      35 conv_iter=      17 cpu clock= 1.80E-01
 tran: time= 9.0200E-11 tot_iter=      40 conv_iter=      19 cpu clock= 1.80E-01
 tran: time= 1.0000E-10 tot_iter=     219 conv_iter=      25 cpu clock= 1.80E-01
 sweep: tran tran30   end,  cpu clock=  1.80E-01 memory=    167 kb
 parameter: drain           =   -1.62E+00
 dcop: begin dcop,  cpu clock=  1.80E-01
 dcop: end dcop,  cpu clock=  1.80E-01 memory=    167 kb  tot_iter=     618
 output: millerchar.tr0
 sweep: tran tran31   begin, stop_t=  1.00E-10 #sweeps= 201 cpu clock=  1.80E-01
 tran: time= 1.0200E-11 tot_iter=       7 conv_iter=       3 cpu clock= 1.80E-01
 tran: time= 2.0200E-11 tot_iter=      11 conv_iter=       5 cpu clock= 1.80E-01
 tran: time= 3.0200E-11 tot_iter=      15 conv_iter=       7 cpu clock= 1.80E-01
 tran: time= 4.0200E-11 tot_iter=      19 conv_iter=       9 cpu clock= 1.80E-01
 tran: time= 5.0200E-11 tot_iter=      23 conv_iter=      11 cpu clock= 1.80E-01
 tran: time= 6.0200E-11 tot_iter=      27 conv_iter=      13 cpu clock= 1.80E-01
 tran: time= 7.0200E-11 tot_iter=      31 conv_iter=      15 cpu clock= 1.80E-01
 tran: time= 8.0200E-11 tot_iter=      35 conv_iter=      17 cpu clock= 1.80E-01
 tran: time= 9.0200E-11 tot_iter=      40 conv_iter=      19 cpu clock= 1.80E-01
 tran: time= 1.0000E-10 tot_iter=     203 conv_iter=      24 cpu clock= 1.80E-01
 sweep: tran tran31   end,  cpu clock=  1.80E-01 memory=    167 kb
 parameter: drain           =   -1.61E+00
 dcop: begin dcop,  cpu clock=  1.80E-01
 dcop: end dcop,  cpu clock=  1.80E-01 memory=    167 kb  tot_iter=     636
 output: millerchar.tr0
 sweep: tran tran32   begin, stop_t=  1.00E-10 #sweeps= 201 cpu clock=  1.80E-01
 tran: time= 1.0200E-11 tot_iter=       7 conv_iter=       3 cpu clock= 1.80E-01
 tran: time= 2.0200E-11 tot_iter=      11 conv_iter=       5 cpu clock= 1.80E-01
 tran: time= 3.0200E-11 tot_iter=      15 conv_iter=       7 cpu clock= 1.80E-01
 tran: time= 4.0200E-11 tot_iter=      19 conv_iter=       9 cpu clock= 1.80E-01
 tran: time= 5.0200E-11 tot_iter=      23 conv_iter=      11 cpu clock= 1.80E-01
 tran: time= 6.0200E-11 tot_iter=      27 conv_iter=      13 cpu clock= 1.80E-01
 tran: time= 7.0200E-11 tot_iter=      31 conv_iter=      15 cpu clock= 1.80E-01
 tran: time= 8.0200E-11 tot_iter=      35 conv_iter=      17 cpu clock= 1.80E-01
 tran: time= 9.0200E-11 tot_iter=      40 conv_iter=      19 cpu clock= 1.80E-01
 tran: time= 1.0000E-10 tot_iter=     303 conv_iter=      27 cpu clock= 1.80E-01
 sweep: tran tran32   end,  cpu clock=  1.80E-01 memory=    167 kb
 parameter: drain           =   -1.60E+00
 dcop: begin dcop,  cpu clock=  1.80E-01
 dcop: end dcop,  cpu clock=  1.80E-01 memory=    167 kb  tot_iter=     654
 output: millerchar.tr0
 sweep: tran tran33   begin, stop_t=  1.00E-10 #sweeps= 201 cpu clock=  1.80E-01
 tran: time= 1.0200E-11 tot_iter=       7 conv_iter=       3 cpu clock= 1.80E-01
 tran: time= 2.0200E-11 tot_iter=      11 conv_iter=       5 cpu clock= 1.80E-01
 tran: time= 3.0200E-11 tot_iter=      15 conv_iter=       7 cpu clock= 1.80E-01
 tran: time= 4.0200E-11 tot_iter=      19 conv_iter=       9 cpu clock= 1.80E-01
 tran: time= 5.0200E-11 tot_iter=      23 conv_iter=      11 cpu clock= 1.80E-01
 tran: time= 6.0200E-11 tot_iter=      27 conv_iter=      13 cpu clock= 1.80E-01
 tran: time= 7.0200E-11 tot_iter=      31 conv_iter=      15 cpu clock= 1.80E-01
 tran: time= 8.0200E-11 tot_iter=      35 conv_iter=      17 cpu clock= 1.80E-01
 tran: time= 9.0200E-11 tot_iter=      40 conv_iter=      19 cpu clock= 1.80E-01
 tran: time= 1.0000E-10 tot_iter=     367 conv_iter=      32 cpu clock= 1.80E-01
 sweep: tran tran33   end,  cpu clock=  1.80E-01 memory=    167 kb
 parameter: drain           =   -1.59E+00
 dcop: begin dcop,  cpu clock=  2.00E-01
 dcop: end dcop,  cpu clock=  2.00E-01 memory=    167 kb  tot_iter=     672
 output: millerchar.tr0
 sweep: tran tran34   begin, stop_t=  1.00E-10 #sweeps= 201 cpu clock=  2.00E-01
 tran: time= 1.0200E-11 tot_iter=       7 conv_iter=       3 cpu clock= 2.00E-01
 tran: time= 2.0200E-11 tot_iter=      11 conv_iter=       5 cpu clock= 2.00E-01
 tran: time= 3.0200E-11 tot_iter=      15 conv_iter=       7 cpu clock= 2.00E-01
 tran: time= 4.0200E-11 tot_iter=      19 conv_iter=       9 cpu clock= 2.00E-01
 tran: time= 5.0200E-11 tot_iter=      23 conv_iter=      11 cpu clock= 2.00E-01
 tran: time= 6.0200E-11 tot_iter=      27 conv_iter=      13 cpu clock= 2.00E-01
 tran: time= 7.0200E-11 tot_iter=      31 conv_iter=      15 cpu clock= 2.00E-01
 tran: time= 8.0200E-11 tot_iter=      35 conv_iter=      17 cpu clock= 2.00E-01
 tran: time= 9.0200E-11 tot_iter=      39 conv_iter=      19 cpu clock= 2.00E-01
 tran: time= 1.0000E-10 tot_iter=     305 conv_iter=      31 cpu clock= 2.00E-01
 sweep: tran tran34   end,  cpu clock=  2.00E-01 memory=    167 kb
 parameter: drain           =   -1.57E+00
 dcop: begin dcop,  cpu clock=  2.00E-01
 dcop: end dcop,  cpu clock=  2.00E-01 memory=    167 kb  tot_iter=     690
 output: millerchar.tr0
 sweep: tran tran35   begin, stop_t=  1.00E-10 #sweeps= 201 cpu clock=  2.00E-01
 tran: time= 1.0200E-11 tot_iter=       7 conv_iter=       3 cpu clock= 2.00E-01
 tran: time= 2.0200E-11 tot_iter=      11 conv_iter=       5 cpu clock= 2.00E-01
 tran: time= 3.0200E-11 tot_iter=      15 conv_iter=       7 cpu clock= 2.00E-01
 tran: time= 4.0200E-11 tot_iter=      19 conv_iter=       9 cpu clock= 2.00E-01
 tran: time= 5.0200E-11 tot_iter=      23 conv_iter=      11 cpu clock= 2.00E-01
 tran: time= 6.0200E-11 tot_iter=      27 conv_iter=      13 cpu clock= 2.00E-01
 tran: time= 7.0200E-11 tot_iter=      31 conv_iter=      15 cpu clock= 2.00E-01
 tran: time= 8.0200E-11 tot_iter=      35 conv_iter=      17 cpu clock= 2.00E-01
 tran: time= 9.0200E-11 tot_iter=      39 conv_iter=      19 cpu clock= 2.00E-01
 tran: time= 1.0000E-10 tot_iter=     221 conv_iter=      26 cpu clock= 2.00E-01
 sweep: tran tran35   end,  cpu clock=  2.00E-01 memory=    167 kb
 parameter: drain           =   -1.56E+00
 dcop: begin dcop,  cpu clock=  2.00E-01
 dcop: end dcop,  cpu clock=  2.00E-01 memory=    167 kb  tot_iter=     708
 output: millerchar.tr0
 sweep: tran tran36   begin, stop_t=  1.00E-10 #sweeps= 201 cpu clock=  2.00E-01
 tran: time= 1.0200E-11 tot_iter=       7 conv_iter=       3 cpu clock= 2.00E-01
 tran: time= 2.0200E-11 tot_iter=      11 conv_iter=       5 cpu clock= 2.00E-01
 tran: time= 3.0200E-11 tot_iter=      15 conv_iter=       7 cpu clock= 2.00E-01
 tran: time= 4.0200E-11 tot_iter=      19 conv_iter=       9 cpu clock= 2.00E-01
 tran: time= 5.0200E-11 tot_iter=      23 conv_iter=      11 cpu clock= 2.00E-01
 tran: time= 6.0200E-11 tot_iter=      27 conv_iter=      13 cpu clock= 2.00E-01
 tran: time= 7.0200E-11 tot_iter=      31 conv_iter=      15 cpu clock= 2.00E-01
 tran: time= 8.0200E-11 tot_iter=      35 conv_iter=      17 cpu clock= 2.00E-01
 tran: time= 9.0200E-11 tot_iter=      39 conv_iter=      19 cpu clock= 2.00E-01
 tran: time= 1.0000E-10 tot_iter=     205 conv_iter=      25 cpu clock= 2.00E-01
 sweep: tran tran36   end,  cpu clock=  2.00E-01 memory=    167 kb
 parameter: drain           =   -1.55E+00
 dcop: begin dcop,  cpu clock=  2.00E-01
 dcop: end dcop,  cpu clock=  2.00E-01 memory=    167 kb  tot_iter=     726
 output: millerchar.tr0
 sweep: tran tran37   begin, stop_t=  1.00E-10 #sweeps= 201 cpu clock=  2.00E-01
 tran: time= 1.0200E-11 tot_iter=       7 conv_iter=       3 cpu clock= 2.00E-01
 tran: time= 2.0200E-11 tot_iter=      11 conv_iter=       5 cpu clock= 2.00E-01
 tran: time= 3.0200E-11 tot_iter=      15 conv_iter=       7 cpu clock= 2.00E-01
 tran: time= 4.0200E-11 tot_iter=      19 conv_iter=       9 cpu clock= 2.00E-01
 tran: time= 5.0200E-11 tot_iter=      23 conv_iter=      11 cpu clock= 2.00E-01
 tran: time= 6.0200E-11 tot_iter=      27 conv_iter=      13 cpu clock= 2.00E-01
 tran: time= 7.0200E-11 tot_iter=      31 conv_iter=      15 cpu clock= 2.00E-01
 tran: time= 8.0200E-11 tot_iter=      35 conv_iter=      17 cpu clock= 2.00E-01
 tran: time= 9.0200E-11 tot_iter=      39 conv_iter=      19 cpu clock= 2.00E-01
 tran: time= 1.0000E-10 tot_iter=     205 conv_iter=      25 cpu clock= 2.00E-01
 sweep: tran tran37   end,  cpu clock=  2.00E-01 memory=    167 kb
 parameter: drain           =   -1.54E+00
 dcop: begin dcop,  cpu clock=  2.00E-01
 dcop: end dcop,  cpu clock=  2.00E-01 memory=    167 kb  tot_iter=     744
 output: millerchar.tr0
 sweep: tran tran38   begin, stop_t=  1.00E-10 #sweeps= 201 cpu clock=  2.00E-01
 tran: time= 1.0200E-11 tot_iter=       7 conv_iter=       3 cpu clock= 2.00E-01
 tran: time= 2.0200E-11 tot_iter=      11 conv_iter=       5 cpu clock= 2.00E-01
 tran: time= 3.0200E-11 tot_iter=      15 conv_iter=       7 cpu clock= 2.00E-01
 tran: time= 4.0200E-11 tot_iter=      19 conv_iter=       9 cpu clock= 2.00E-01
 tran: time= 5.0200E-11 tot_iter=      23 conv_iter=      11 cpu clock= 2.00E-01
 tran: time= 6.0200E-11 tot_iter=      27 conv_iter=      13 cpu clock= 2.00E-01
 tran: time= 7.0200E-11 tot_iter=      31 conv_iter=      15 cpu clock= 2.00E-01
 tran: time= 8.0200E-11 tot_iter=      35 conv_iter=      17 cpu clock= 2.00E-01
 tran: time= 9.0200E-11 tot_iter=      39 conv_iter=      19 cpu clock= 2.00E-01
 tran: time= 1.0000E-10 tot_iter=     189 conv_iter=      24 cpu clock= 2.00E-01
 sweep: tran tran38   end,  cpu clock=  2.00E-01 memory=    167 kb
 parameter: drain           =   -1.52E+00
 dcop: begin dcop,  cpu clock=  2.00E-01
 dcop: end dcop,  cpu clock=  2.00E-01 memory=    167 kb  tot_iter=     761
 output: millerchar.tr0
 sweep: tran tran39   begin, stop_t=  1.00E-10 #sweeps= 201 cpu clock=  2.00E-01
 tran: time= 1.0200E-11 tot_iter=       7 conv_iter=       3 cpu clock= 2.00E-01
 tran: time= 2.0200E-11 tot_iter=      11 conv_iter=       5 cpu clock= 2.00E-01
 tran: time= 3.0200E-11 tot_iter=      15 conv_iter=       7 cpu clock= 2.00E-01
 tran: time= 4.0200E-11 tot_iter=      19 conv_iter=       9 cpu clock= 2.00E-01
 tran: time= 5.0200E-11 tot_iter=      23 conv_iter=      11 cpu clock= 2.00E-01
 tran: time= 6.0200E-11 tot_iter=      27 conv_iter=      13 cpu clock= 2.00E-01
 tran: time= 7.0200E-11 tot_iter=      31 conv_iter=      15 cpu clock= 2.00E-01
 tran: time= 8.0200E-11 tot_iter=      35 conv_iter=      17 cpu clock= 2.00E-01
 tran: time= 9.0200E-11 tot_iter=      39 conv_iter=      19 cpu clock= 2.00E-01
 tran: time= 1.0000E-10 tot_iter=     189 conv_iter=      24 cpu clock= 2.00E-01
 sweep: tran tran39   end,  cpu clock=  2.00E-01 memory=    167 kb
 parameter: drain           =   -1.51E+00
 dcop: begin dcop,  cpu clock=  2.00E-01
 dcop: end dcop,  cpu clock=  2.00E-01 memory=    167 kb  tot_iter=     778
 output: millerchar.tr0
 sweep: tran tran40   begin, stop_t=  1.00E-10 #sweeps= 201 cpu clock=  2.00E-01
 tran: time= 1.0200E-11 tot_iter=       7 conv_iter=       3 cpu clock= 2.00E-01
 tran: time= 2.0200E-11 tot_iter=      11 conv_iter=       5 cpu clock= 2.00E-01
 tran: time= 3.0200E-11 tot_iter=      15 conv_iter=       7 cpu clock= 2.00E-01
 tran: time= 4.0200E-11 tot_iter=      19 conv_iter=       9 cpu clock= 2.00E-01
 tran: time= 5.0200E-11 tot_iter=      23 conv_iter=      11 cpu clock= 2.00E-01
 tran: time= 6.0200E-11 tot_iter=      27 conv_iter=      13 cpu clock= 2.00E-01
 tran: time= 7.0200E-11 tot_iter=      31 conv_iter=      15 cpu clock= 2.00E-01
 tran: time= 8.0200E-11 tot_iter=      35 conv_iter=      17 cpu clock= 2.00E-01
 tran: time= 9.0200E-11 tot_iter=      39 conv_iter=      19 cpu clock= 2.00E-01
 tran: time= 1.0000E-10 tot_iter=     188 conv_iter=      24 cpu clock= 2.00E-01
 sweep: tran tran40   end,  cpu clock=  2.00E-01 memory=    167 kb
 parameter: drain           =   -1.50E+00
 dcop: begin dcop,  cpu clock=  2.00E-01
 dcop: end dcop,  cpu clock=  2.00E-01 memory=    167 kb  tot_iter=     795
 output: millerchar.tr0
 sweep: tran tran41   begin, stop_t=  1.00E-10 #sweeps= 201 cpu clock=  2.00E-01
 tran: time= 1.0200E-11 tot_iter=       7 conv_iter=       3 cpu clock= 2.00E-01
 tran: time= 2.0200E-11 tot_iter=      11 conv_iter=       5 cpu clock= 2.00E-01
 tran: time= 3.0200E-11 tot_iter=      15 conv_iter=       7 cpu clock= 2.00E-01
 tran: time= 4.0200E-11 tot_iter=      19 conv_iter=       9 cpu clock= 2.00E-01
 tran: time= 5.0200E-11 tot_iter=      23 conv_iter=      11 cpu clock= 2.00E-01
 tran: time= 6.0200E-11 tot_iter=      27 conv_iter=      13 cpu clock= 2.00E-01
 tran: time= 7.0200E-11 tot_iter=      31 conv_iter=      15 cpu clock= 2.00E-01
 tran: time= 8.0200E-11 tot_iter=      35 conv_iter=      17 cpu clock= 2.00E-01
 tran: time= 9.0200E-11 tot_iter=      39 conv_iter=      19 cpu clock= 2.00E-01
 tran: time= 1.0000E-10 tot_iter=      48 conv_iter=      21 cpu clock= 2.00E-01
 sweep: tran tran41   end,  cpu clock=  2.20E-01 memory=    167 kb
 parameter: drain           =   -1.49E+00
 dcop: begin dcop,  cpu clock=  2.20E-01
 dcop: end dcop,  cpu clock=  2.20E-01 memory=    167 kb  tot_iter=     812
 output: millerchar.tr0
 sweep: tran tran42   begin, stop_t=  1.00E-10 #sweeps= 201 cpu clock=  2.20E-01
 tran: time= 1.0200E-11 tot_iter=       7 conv_iter=       3 cpu clock= 2.20E-01
 tran: time= 2.0200E-11 tot_iter=      11 conv_iter=       5 cpu clock= 2.20E-01
 tran: time= 3.0200E-11 tot_iter=      15 conv_iter=       7 cpu clock= 2.20E-01
 tran: time= 4.0200E-11 tot_iter=      19 conv_iter=       9 cpu clock= 2.20E-01
 tran: time= 5.0200E-11 tot_iter=      23 conv_iter=      11 cpu clock= 2.20E-01
 tran: time= 6.0200E-11 tot_iter=      27 conv_iter=      13 cpu clock= 2.20E-01
 tran: time= 7.0200E-11 tot_iter=      31 conv_iter=      15 cpu clock= 2.20E-01
 tran: time= 8.0200E-11 tot_iter=      35 conv_iter=      17 cpu clock= 2.20E-01
 tran: time= 9.0200E-11 tot_iter=      39 conv_iter=      19 cpu clock= 2.20E-01
 tran: time= 1.0000E-10 tot_iter=      45 conv_iter=      21 cpu clock= 2.20E-01
 sweep: tran tran42   end,  cpu clock=  2.20E-01 memory=    167 kb
 parameter: drain           =   -1.48E+00
 dcop: begin dcop,  cpu clock=  2.20E-01
 dcop: end dcop,  cpu clock=  2.20E-01 memory=    167 kb  tot_iter=     829
 output: millerchar.tr0
 sweep: tran tran43   begin, stop_t=  1.00E-10 #sweeps= 201 cpu clock=  2.20E-01
 tran: time= 1.0200E-11 tot_iter=       7 conv_iter=       3 cpu clock= 2.20E-01
 tran: time= 2.0200E-11 tot_iter=      11 conv_iter=       5 cpu clock= 2.20E-01
 tran: time= 3.0200E-11 tot_iter=      15 conv_iter=       7 cpu clock= 2.20E-01
 tran: time= 4.0200E-11 tot_iter=      19 conv_iter=       9 cpu clock= 2.20E-01
 tran: time= 5.0200E-11 tot_iter=      23 conv_iter=      11 cpu clock= 2.20E-01
 tran: time= 6.0200E-11 tot_iter=      27 conv_iter=      13 cpu clock= 2.20E-01
 tran: time= 7.0200E-11 tot_iter=      31 conv_iter=      15 cpu clock= 2.20E-01
 tran: time= 8.0200E-11 tot_iter=      35 conv_iter=      17 cpu clock= 2.20E-01
 tran: time= 9.0200E-11 tot_iter=      39 conv_iter=      19 cpu clock= 2.20E-01
 tran: time= 1.0000E-10 tot_iter=      44 conv_iter=      21 cpu clock= 2.20E-01
 sweep: tran tran43   end,  cpu clock=  2.20E-01 memory=    167 kb
 parameter: drain           =   -1.46E+00
 dcop: begin dcop,  cpu clock=  2.20E-01
 dcop: end dcop,  cpu clock=  2.20E-01 memory=    167 kb  tot_iter=     846
 output: millerchar.tr0
 sweep: tran tran44   begin, stop_t=  1.00E-10 #sweeps= 201 cpu clock=  2.20E-01
 tran: time= 1.0200E-11 tot_iter=       7 conv_iter=       3 cpu clock= 2.20E-01
 tran: time= 2.0200E-11 tot_iter=      11 conv_iter=       5 cpu clock= 2.20E-01
 tran: time= 3.0200E-11 tot_iter=      15 conv_iter=       7 cpu clock= 2.20E-01
 tran: time= 4.0200E-11 tot_iter=      19 conv_iter=       9 cpu clock= 2.20E-01
 tran: time= 5.0200E-11 tot_iter=      23 conv_iter=      11 cpu clock= 2.20E-01
 tran: time= 6.0200E-11 tot_iter=      27 conv_iter=      13 cpu clock= 2.20E-01
 tran: time= 7.0200E-11 tot_iter=      31 conv_iter=      15 cpu clock= 2.20E-01
 tran: time= 8.0200E-11 tot_iter=      35 conv_iter=      17 cpu clock= 2.20E-01
 tran: time= 9.0200E-11 tot_iter=      39 conv_iter=      19 cpu clock= 2.20E-01
 tran: time= 1.0000E-10 tot_iter=      44 conv_iter=      21 cpu clock= 2.20E-01
 sweep: tran tran44   end,  cpu clock=  2.20E-01 memory=    167 kb
 parameter: drain           =   -1.45E+00
 dcop: begin dcop,  cpu clock=  2.20E-01
 dcop: end dcop,  cpu clock=  2.20E-01 memory=    167 kb  tot_iter=     863
 output: millerchar.tr0
 sweep: tran tran45   begin, stop_t=  1.00E-10 #sweeps= 201 cpu clock=  2.20E-01
 tran: time= 1.0200E-11 tot_iter=       7 conv_iter=       3 cpu clock= 2.20E-01
 tran: time= 2.0200E-11 tot_iter=      11 conv_iter=       5 cpu clock= 2.20E-01
 tran: time= 3.0200E-11 tot_iter=      15 conv_iter=       7 cpu clock= 2.20E-01
 tran: time= 4.0200E-11 tot_iter=      19 conv_iter=       9 cpu clock= 2.20E-01
 tran: time= 5.0200E-11 tot_iter=      23 conv_iter=      11 cpu clock= 2.20E-01
 tran: time= 6.0200E-11 tot_iter=      27 conv_iter=      13 cpu clock= 2.20E-01
 tran: time= 7.0200E-11 tot_iter=      31 conv_iter=      15 cpu clock= 2.20E-01
 tran: time= 8.0200E-11 tot_iter=      35 conv_iter=      17 cpu clock= 2.20E-01
 tran: time= 9.0200E-11 tot_iter=      39 conv_iter=      19 cpu clock= 2.20E-01
 tran: time= 1.0000E-10 tot_iter=      44 conv_iter=      21 cpu clock= 2.20E-01
 sweep: tran tran45   end,  cpu clock=  2.20E-01 memory=    167 kb
 parameter: drain           =   -1.44E+00
 dcop: begin dcop,  cpu clock=  2.20E-01
 dcop: end dcop,  cpu clock=  2.20E-01 memory=    167 kb  tot_iter=     880
 output: millerchar.tr0
 sweep: tran tran46   begin, stop_t=  1.00E-10 #sweeps= 201 cpu clock=  2.20E-01
 tran: time= 1.0200E-11 tot_iter=       7 conv_iter=       3 cpu clock= 2.20E-01
 tran: time= 2.0200E-11 tot_iter=      11 conv_iter=       5 cpu clock= 2.20E-01
 tran: time= 3.0200E-11 tot_iter=      15 conv_iter=       7 cpu clock= 2.20E-01
 tran: time= 4.0200E-11 tot_iter=      19 conv_iter=       9 cpu clock= 2.20E-01
 tran: time= 5.0200E-11 tot_iter=      23 conv_iter=      11 cpu clock= 2.20E-01
 tran: time= 6.0200E-11 tot_iter=      27 conv_iter=      13 cpu clock= 2.20E-01
 tran: time= 7.0200E-11 tot_iter=      31 conv_iter=      15 cpu clock= 2.20E-01
 tran: time= 8.0200E-11 tot_iter=      35 conv_iter=      17 cpu clock= 2.20E-01
 tran: time= 9.0200E-11 tot_iter=      39 conv_iter=      19 cpu clock= 2.20E-01
 tran: time= 1.0000E-10 tot_iter=      44 conv_iter=      21 cpu clock= 2.20E-01
 sweep: tran tran46   end,  cpu clock=  2.20E-01 memory=    167 kb
 parameter: drain           =   -1.42E+00
 dcop: begin dcop,  cpu clock=  2.20E-01
 dcop: end dcop,  cpu clock=  2.20E-01 memory=    167 kb  tot_iter=     897
 output: millerchar.tr0
 sweep: tran tran47   begin, stop_t=  1.00E-10 #sweeps= 201 cpu clock=  2.20E-01
 tran: time= 1.0200E-11 tot_iter=       7 conv_iter=       3 cpu clock= 2.20E-01
 tran: time= 2.0200E-11 tot_iter=      11 conv_iter=       5 cpu clock= 2.20E-01
 tran: time= 3.0200E-11 tot_iter=      15 conv_iter=       7 cpu clock= 2.20E-01
 tran: time= 4.0200E-11 tot_iter=      19 conv_iter=       9 cpu clock= 2.20E-01
 tran: time= 5.0200E-11 tot_iter=      23 conv_iter=      11 cpu clock= 2.20E-01
 tran: time= 6.0200E-11 tot_iter=      27 conv_iter=      13 cpu clock= 2.20E-01
 tran: time= 7.0200E-11 tot_iter=      31 conv_iter=      15 cpu clock= 2.20E-01
 tran: time= 8.0200E-11 tot_iter=      35 conv_iter=      17 cpu clock= 2.20E-01
 tran: time= 9.0200E-11 tot_iter=      39 conv_iter=      19 cpu clock= 2.20E-01
 tran: time= 1.0000E-10 tot_iter=      44 conv_iter=      21 cpu clock= 2.20E-01
 sweep: tran tran47   end,  cpu clock=  2.20E-01 memory=    167 kb
 parameter: drain           =   -1.41E+00
 dcop: begin dcop,  cpu clock=  2.20E-01
 dcop: end dcop,  cpu clock=  2.20E-01 memory=    167 kb  tot_iter=     913
 output: millerchar.tr0
 sweep: tran tran48   begin, stop_t=  1.00E-10 #sweeps= 201 cpu clock=  2.20E-01
 tran: time= 1.0200E-11 tot_iter=       7 conv_iter=       3 cpu clock= 2.20E-01
 tran: time= 2.0200E-11 tot_iter=      11 conv_iter=       5 cpu clock= 2.20E-01
 tran: time= 3.0200E-11 tot_iter=      15 conv_iter=       7 cpu clock= 2.20E-01
 tran: time= 4.0200E-11 tot_iter=      19 conv_iter=       9 cpu clock= 2.20E-01
 tran: time= 5.0200E-11 tot_iter=      23 conv_iter=      11 cpu clock= 2.20E-01
 tran: time= 6.0200E-11 tot_iter=      27 conv_iter=      13 cpu clock= 2.20E-01
 tran: time= 7.0200E-11 tot_iter=      31 conv_iter=      15 cpu clock= 2.20E-01
 tran: time= 8.0200E-11 tot_iter=      35 conv_iter=      17 cpu clock= 2.20E-01
 tran: time= 9.0200E-11 tot_iter=      39 conv_iter=      19 cpu clock= 2.20E-01
 tran: time= 1.0000E-10 tot_iter=      44 conv_iter=      21 cpu clock= 2.20E-01
 sweep: tran tran48   end,  cpu clock=  2.20E-01 memory=    167 kb
 parameter: drain           =   -1.40E+00
 dcop: begin dcop,  cpu clock=  2.20E-01
 dcop: end dcop,  cpu clock=  2.20E-01 memory=    167 kb  tot_iter=     929
 output: millerchar.tr0
 sweep: tran tran49   begin, stop_t=  1.00E-10 #sweeps= 201 cpu clock=  2.20E-01
 tran: time= 1.0200E-11 tot_iter=       7 conv_iter=       3 cpu clock= 2.20E-01
 tran: time= 2.0200E-11 tot_iter=      11 conv_iter=       5 cpu clock= 2.20E-01
 tran: time= 3.0200E-11 tot_iter=      15 conv_iter=       7 cpu clock= 2.20E-01
 tran: time= 4.0200E-11 tot_iter=      19 conv_iter=       9 cpu clock= 2.40E-01
 tran: time= 5.0200E-11 tot_iter=      23 conv_iter=      11 cpu clock= 2.40E-01
 tran: time= 6.0200E-11 tot_iter=      27 conv_iter=      13 cpu clock= 2.40E-01
 tran: time= 7.0200E-11 tot_iter=      31 conv_iter=      15 cpu clock= 2.40E-01
 tran: time= 8.0200E-11 tot_iter=      35 conv_iter=      17 cpu clock= 2.40E-01
 tran: time= 9.0200E-11 tot_iter=      39 conv_iter=      19 cpu clock= 2.40E-01
 tran: time= 1.0000E-10 tot_iter=      44 conv_iter=      21 cpu clock= 2.40E-01
 sweep: tran tran49   end,  cpu clock=  2.40E-01 memory=    167 kb
 parameter: drain           =   -1.39E+00
 dcop: begin dcop,  cpu clock=  2.40E-01
 dcop: end dcop,  cpu clock=  2.40E-01 memory=    167 kb  tot_iter=     945
 output: millerchar.tr0
 sweep: tran tran50   begin, stop_t=  1.00E-10 #sweeps= 201 cpu clock=  2.40E-01
 tran: time= 1.0200E-11 tot_iter=       7 conv_iter=       3 cpu clock= 2.40E-01
 tran: time= 2.0200E-11 tot_iter=      11 conv_iter=       5 cpu clock= 2.40E-01
 tran: time= 3.0200E-11 tot_iter=      15 conv_iter=       7 cpu clock= 2.40E-01
 tran: time= 4.0200E-11 tot_iter=      19 conv_iter=       9 cpu clock= 2.40E-01
 tran: time= 5.0200E-11 tot_iter=      23 conv_iter=      11 cpu clock= 2.40E-01
 tran: time= 6.0200E-11 tot_iter=      27 conv_iter=      13 cpu clock= 2.40E-01
 tran: time= 7.0200E-11 tot_iter=      31 conv_iter=      15 cpu clock= 2.40E-01
 tran: time= 8.0200E-11 tot_iter=      35 conv_iter=      17 cpu clock= 2.40E-01
 tran: time= 9.0200E-11 tot_iter=      39 conv_iter=      19 cpu clock= 2.40E-01
 tran: time= 1.0000E-10 tot_iter=      44 conv_iter=      21 cpu clock= 2.40E-01
 sweep: tran tran50   end,  cpu clock=  2.40E-01 memory=    167 kb
 parameter: drain           =   -1.38E+00
 dcop: begin dcop,  cpu clock=  2.40E-01
 dcop: end dcop,  cpu clock=  2.40E-01 memory=    167 kb  tot_iter=     961
 output: millerchar.tr0
 sweep: tran tran51   begin, stop_t=  1.00E-10 #sweeps= 201 cpu clock=  2.40E-01
 tran: time= 1.0200E-11 tot_iter=       7 conv_iter=       3 cpu clock= 2.40E-01
 tran: time= 2.0200E-11 tot_iter=      11 conv_iter=       5 cpu clock= 2.40E-01
 tran: time= 3.0200E-11 tot_iter=      15 conv_iter=       7 cpu clock= 2.40E-01
 tran: time= 4.0200E-11 tot_iter=      19 conv_iter=       9 cpu clock= 2.40E-01
 tran: time= 5.0200E-11 tot_iter=      23 conv_iter=      11 cpu clock= 2.40E-01
 tran: time= 6.0200E-11 tot_iter=      27 conv_iter=      13 cpu clock= 2.40E-01
 tran: time= 7.0200E-11 tot_iter=      31 conv_iter=      15 cpu clock= 2.40E-01
 tran: time= 8.0200E-11 tot_iter=      35 conv_iter=      17 cpu clock= 2.40E-01
 tran: time= 9.0200E-11 tot_iter=      39 conv_iter=      19 cpu clock= 2.40E-01
 tran: time= 1.0000E-10 tot_iter=      43 conv_iter=      21 cpu clock= 2.40E-01
 sweep: tran tran51   end,  cpu clock=  2.40E-01 memory=    167 kb
 parameter: drain           =   -1.36E+00
 dcop: begin dcop,  cpu clock=  2.40E-01
 dcop: end dcop,  cpu clock=  2.40E-01 memory=    167 kb  tot_iter=     977
 output: millerchar.tr0
 sweep: tran tran52   begin, stop_t=  1.00E-10 #sweeps= 201 cpu clock=  2.40E-01
 tran: time= 1.0200E-11 tot_iter=       7 conv_iter=       3 cpu clock= 2.40E-01
 tran: time= 2.0200E-11 tot_iter=      11 conv_iter=       5 cpu clock= 2.40E-01
 tran: time= 3.0200E-11 tot_iter=      15 conv_iter=       7 cpu clock= 2.40E-01
 tran: time= 4.0200E-11 tot_iter=      19 conv_iter=       9 cpu clock= 2.40E-01
 tran: time= 5.0200E-11 tot_iter=      23 conv_iter=      11 cpu clock= 2.40E-01
 tran: time= 6.0200E-11 tot_iter=      27 conv_iter=      13 cpu clock= 2.40E-01
 tran: time= 7.0200E-11 tot_iter=      31 conv_iter=      15 cpu clock= 2.40E-01
 tran: time= 8.0200E-11 tot_iter=      35 conv_iter=      17 cpu clock= 2.40E-01
 tran: time= 9.0200E-11 tot_iter=      39 conv_iter=      19 cpu clock= 2.40E-01
 tran: time= 1.0000E-10 tot_iter=      43 conv_iter=      21 cpu clock= 2.40E-01
 sweep: tran tran52   end,  cpu clock=  2.40E-01 memory=    167 kb
 parameter: drain           =   -1.35E+00
 dcop: begin dcop,  cpu clock=  2.40E-01
 dcop: end dcop,  cpu clock=  2.40E-01 memory=    167 kb  tot_iter=     993
 output: millerchar.tr0
 sweep: tran tran53   begin, stop_t=  1.00E-10 #sweeps= 201 cpu clock=  2.40E-01
 tran: time= 1.0200E-11 tot_iter=       7 conv_iter=       3 cpu clock= 2.40E-01
 tran: time= 2.0200E-11 tot_iter=      11 conv_iter=       5 cpu clock= 2.40E-01
 tran: time= 3.0200E-11 tot_iter=      15 conv_iter=       7 cpu clock= 2.40E-01
 tran: time= 4.0200E-11 tot_iter=      19 conv_iter=       9 cpu clock= 2.40E-01
 tran: time= 5.0200E-11 tot_iter=      23 conv_iter=      11 cpu clock= 2.40E-01
 tran: time= 6.0200E-11 tot_iter=      27 conv_iter=      13 cpu clock= 2.40E-01
 tran: time= 7.0200E-11 tot_iter=      31 conv_iter=      15 cpu clock= 2.40E-01
 tran: time= 8.0200E-11 tot_iter=      35 conv_iter=      17 cpu clock= 2.40E-01
 tran: time= 9.0200E-11 tot_iter=      39 conv_iter=      19 cpu clock= 2.40E-01
 tran: time= 1.0000E-10 tot_iter=      43 conv_iter=      21 cpu clock= 2.40E-01
 sweep: tran tran53   end,  cpu clock=  2.40E-01 memory=    167 kb
 parameter: drain           =   -1.34E+00
 dcop: begin dcop,  cpu clock=  2.40E-01
 dcop: end dcop,  cpu clock=  2.40E-01 memory=    167 kb  tot_iter=    1009
 output: millerchar.tr0
 sweep: tran tran54   begin, stop_t=  1.00E-10 #sweeps= 201 cpu clock=  2.40E-01
 tran: time= 1.0200E-11 tot_iter=       7 conv_iter=       3 cpu clock= 2.40E-01
 tran: time= 2.0200E-11 tot_iter=      11 conv_iter=       5 cpu clock= 2.40E-01
 tran: time= 3.0200E-11 tot_iter=      15 conv_iter=       7 cpu clock= 2.40E-01
 tran: time= 4.0200E-11 tot_iter=      19 conv_iter=       9 cpu clock= 2.40E-01
 tran: time= 5.0200E-11 tot_iter=      23 conv_iter=      11 cpu clock= 2.40E-01
 tran: time= 6.0200E-11 tot_iter=      27 conv_iter=      13 cpu clock= 2.40E-01
 tran: time= 7.0200E-11 tot_iter=      31 conv_iter=      15 cpu clock= 2.40E-01
 tran: time= 8.0200E-11 tot_iter=      35 conv_iter=      17 cpu clock= 2.40E-01
 tran: time= 9.0200E-11 tot_iter=      39 conv_iter=      19 cpu clock= 2.40E-01
 tran: time= 1.0000E-10 tot_iter=      43 conv_iter=      21 cpu clock= 2.40E-01
 sweep: tran tran54   end,  cpu clock=  2.40E-01 memory=    167 kb
 parameter: drain           =   -1.32E+00
 dcop: begin dcop,  cpu clock=  2.40E-01
 dcop: end dcop,  cpu clock=  2.40E-01 memory=    167 kb  tot_iter=    1025
 output: millerchar.tr0
 sweep: tran tran55   begin, stop_t=  1.00E-10 #sweeps= 201 cpu clock=  2.40E-01
 tran: time= 1.0200E-11 tot_iter=       7 conv_iter=       3 cpu clock= 2.40E-01
 tran: time= 2.0200E-11 tot_iter=      11 conv_iter=       5 cpu clock= 2.40E-01
 tran: time= 3.0200E-11 tot_iter=      15 conv_iter=       7 cpu clock= 2.40E-01
 tran: time= 4.0200E-11 tot_iter=      19 conv_iter=       9 cpu clock= 2.40E-01
 tran: time= 5.0200E-11 tot_iter=      23 conv_iter=      11 cpu clock= 2.40E-01
 tran: time= 6.0200E-11 tot_iter=      27 conv_iter=      13 cpu clock= 2.40E-01
 tran: time= 7.0200E-11 tot_iter=      31 conv_iter=      15 cpu clock= 2.40E-01
 tran: time= 8.0200E-11 tot_iter=      35 conv_iter=      17 cpu clock= 2.40E-01
 tran: time= 9.0200E-11 tot_iter=      39 conv_iter=      19 cpu clock= 2.40E-01
 tran: time= 1.0000E-10 tot_iter=      43 conv_iter=      21 cpu clock= 2.40E-01
 sweep: tran tran55   end,  cpu clock=  2.40E-01 memory=    167 kb
 parameter: drain           =   -1.31E+00
 dcop: begin dcop,  cpu clock=  2.40E-01
 dcop: end dcop,  cpu clock=  2.40E-01 memory=    167 kb  tot_iter=    1040
 output: millerchar.tr0
 sweep: tran tran56   begin, stop_t=  1.00E-10 #sweeps= 201 cpu clock=  2.40E-01
 tran: time= 1.0200E-11 tot_iter=       7 conv_iter=       3 cpu clock= 2.40E-01
 tran: time= 2.0200E-11 tot_iter=      11 conv_iter=       5 cpu clock= 2.40E-01
 tran: time= 3.0200E-11 tot_iter=      15 conv_iter=       7 cpu clock= 2.40E-01
 tran: time= 4.0200E-11 tot_iter=      19 conv_iter=       9 cpu clock= 2.40E-01
 tran: time= 5.0200E-11 tot_iter=      23 conv_iter=      11 cpu clock= 2.40E-01
 tran: time= 6.0200E-11 tot_iter=      27 conv_iter=      13 cpu clock= 2.40E-01
 tran: time= 7.0200E-11 tot_iter=      31 conv_iter=      15 cpu clock= 2.40E-01
 tran: time= 8.0200E-11 tot_iter=      35 conv_iter=      17 cpu clock= 2.40E-01
 tran: time= 9.0200E-11 tot_iter=      39 conv_iter=      19 cpu clock= 2.40E-01
 tran: time= 1.0000E-10 tot_iter=      43 conv_iter=      21 cpu clock= 2.40E-01
 sweep: tran tran56   end,  cpu clock=  2.40E-01 memory=    167 kb
 parameter: drain           =   -1.30E+00
 dcop: begin dcop,  cpu clock=  2.40E-01
 dcop: end dcop,  cpu clock=  2.40E-01 memory=    167 kb  tot_iter=    1055
 output: millerchar.tr0
 sweep: tran tran57   begin, stop_t=  1.00E-10 #sweeps= 201 cpu clock=  2.40E-01
 tran: time= 1.0200E-11 tot_iter=       7 conv_iter=       3 cpu clock= 2.40E-01
 tran: time= 2.0200E-11 tot_iter=      11 conv_iter=       5 cpu clock= 2.40E-01
 tran: time= 3.0200E-11 tot_iter=      15 conv_iter=       7 cpu clock= 2.40E-01
 tran: time= 4.0200E-11 tot_iter=      19 conv_iter=       9 cpu clock= 2.40E-01
 tran: time= 5.0200E-11 tot_iter=      23 conv_iter=      11 cpu clock= 2.40E-01
 tran: time= 6.0200E-11 tot_iter=      27 conv_iter=      13 cpu clock= 2.40E-01
 tran: time= 7.0200E-11 tot_iter=      31 conv_iter=      15 cpu clock= 2.40E-01
 tran: time= 8.0200E-11 tot_iter=      35 conv_iter=      17 cpu clock= 2.40E-01
 tran: time= 9.0200E-11 tot_iter=      39 conv_iter=      19 cpu clock= 2.40E-01
 tran: time= 1.0000E-10 tot_iter=      43 conv_iter=      21 cpu clock= 2.40E-01
 sweep: tran tran57   end,  cpu clock=  2.40E-01 memory=    167 kb
 parameter: drain           =   -1.29E+00
 dcop: begin dcop,  cpu clock=  2.40E-01
 dcop: end dcop,  cpu clock=  2.40E-01 memory=    167 kb  tot_iter=    1070
 output: millerchar.tr0
 sweep: tran tran58   begin, stop_t=  1.00E-10 #sweeps= 201 cpu clock=  2.40E-01
 tran: time= 1.0200E-11 tot_iter=       7 conv_iter=       3 cpu clock= 2.40E-01
 tran: time= 2.0200E-11 tot_iter=      11 conv_iter=       5 cpu clock= 2.40E-01
 tran: time= 3.0200E-11 tot_iter=      15 conv_iter=       7 cpu clock= 2.40E-01
 tran: time= 4.0200E-11 tot_iter=      19 conv_iter=       9 cpu clock= 2.40E-01
 tran: time= 5.0200E-11 tot_iter=      23 conv_iter=      11 cpu clock= 2.40E-01
 tran: time= 6.0200E-11 tot_iter=      27 conv_iter=      13 cpu clock= 2.40E-01
 tran: time= 7.0200E-11 tot_iter=      31 conv_iter=      15 cpu clock= 2.40E-01
 tran: time= 8.0200E-11 tot_iter=      35 conv_iter=      17 cpu clock= 2.40E-01
 tran: time= 9.0200E-11 tot_iter=      39 conv_iter=      19 cpu clock= 2.40E-01
 tran: time= 1.0000E-10 tot_iter=      43 conv_iter=      21 cpu clock= 2.40E-01
 sweep: tran tran58   end,  cpu clock=  2.40E-01 memory=    167 kb
 parameter: drain           =   -1.27E+00
 dcop: begin dcop,  cpu clock=  2.40E-01
 dcop: end dcop,  cpu clock=  2.40E-01 memory=    167 kb  tot_iter=    1085
 output: millerchar.tr0
 sweep: tran tran59   begin, stop_t=  1.00E-10 #sweeps= 201 cpu clock=  2.40E-01
 tran: time= 1.0200E-11 tot_iter=       7 conv_iter=       3 cpu clock= 2.40E-01
 tran: time= 2.0200E-11 tot_iter=      11 conv_iter=       5 cpu clock= 2.40E-01
 tran: time= 3.0200E-11 tot_iter=      15 conv_iter=       7 cpu clock= 2.40E-01
 tran: time= 4.0200E-11 tot_iter=      19 conv_iter=       9 cpu clock= 2.40E-01
 tran: time= 5.0200E-11 tot_iter=      23 conv_iter=      11 cpu clock= 2.40E-01
 tran: time= 6.0200E-11 tot_iter=      27 conv_iter=      13 cpu clock= 2.40E-01
 tran: time= 7.0200E-11 tot_iter=      31 conv_iter=      15 cpu clock= 2.40E-01
 tran: time= 8.0200E-11 tot_iter=      35 conv_iter=      17 cpu clock= 2.40E-01
 tran: time= 9.0200E-11 tot_iter=      39 conv_iter=      19 cpu clock= 2.40E-01
 tran: time= 1.0000E-10 tot_iter=      43 conv_iter=      21 cpu clock= 2.40E-01
 sweep: tran tran59   end,  cpu clock=  2.40E-01 memory=    167 kb
 parameter: drain           =   -1.26E+00
 dcop: begin dcop,  cpu clock=  2.40E-01
 dcop: end dcop,  cpu clock=  2.40E-01 memory=    167 kb  tot_iter=    1100
 output: millerchar.tr0
 sweep: tran tran60   begin, stop_t=  1.00E-10 #sweeps= 201 cpu clock=  2.40E-01
 tran: time= 1.0200E-11 tot_iter=       7 conv_iter=       3 cpu clock= 2.40E-01
 tran: time= 2.0200E-11 tot_iter=      11 conv_iter=       5 cpu clock= 2.40E-01
 tran: time= 3.0200E-11 tot_iter=      15 conv_iter=       7 cpu clock= 2.40E-01
 tran: time= 4.0200E-11 tot_iter=      19 conv_iter=       9 cpu clock= 2.40E-01
 tran: time= 5.0200E-11 tot_iter=      23 conv_iter=      11 cpu clock= 2.40E-01
 tran: time= 6.0200E-11 tot_iter=      27 conv_iter=      13 cpu clock= 2.40E-01
 tran: time= 7.0200E-11 tot_iter=      31 conv_iter=      15 cpu clock= 2.40E-01
 tran: time= 8.0200E-11 tot_iter=      35 conv_iter=      17 cpu clock= 2.40E-01
 tran: time= 9.0200E-11 tot_iter=      39 conv_iter=      19 cpu clock= 2.40E-01
 tran: time= 1.0000E-10 tot_iter=      43 conv_iter=      21 cpu clock= 2.40E-01
 sweep: tran tran60   end,  cpu clock=  2.40E-01 memory=    167 kb
 parameter: drain           =   -1.25E+00
 dcop: begin dcop,  cpu clock=  2.40E-01
 dcop: end dcop,  cpu clock=  2.40E-01 memory=    167 kb  tot_iter=    1115
 output: millerchar.tr0
 sweep: tran tran61   begin, stop_t=  1.00E-10 #sweeps= 201 cpu clock=  2.40E-01
 tran: time= 1.0200E-11 tot_iter=       7 conv_iter=       3 cpu clock= 2.40E-01
 tran: time= 2.0200E-11 tot_iter=      11 conv_iter=       5 cpu clock= 2.40E-01
 tran: time= 3.0200E-11 tot_iter=      15 conv_iter=       7 cpu clock= 2.40E-01
 tran: time= 4.0200E-11 tot_iter=      19 conv_iter=       9 cpu clock= 2.40E-01
 tran: time= 5.0200E-11 tot_iter=      23 conv_iter=      11 cpu clock= 2.40E-01
 tran: time= 6.0200E-11 tot_iter=      27 conv_iter=      13 cpu clock= 2.40E-01
 tran: time= 7.0200E-11 tot_iter=      31 conv_iter=      15 cpu clock= 2.40E-01
 tran: time= 8.0200E-11 tot_iter=      35 conv_iter=      17 cpu clock= 2.40E-01
 tran: time= 9.0200E-11 tot_iter=      39 conv_iter=      19 cpu clock= 2.40E-01
 tran: time= 1.0000E-10 tot_iter=      43 conv_iter=      21 cpu clock= 2.40E-01
 sweep: tran tran61   end,  cpu clock=  2.40E-01 memory=    167 kb
 parameter: drain           =   -1.24E+00
 dcop: begin dcop,  cpu clock=  2.40E-01
 dcop: end dcop,  cpu clock=  2.40E-01 memory=    167 kb  tot_iter=    1130
 output: millerchar.tr0
 sweep: tran tran62   begin, stop_t=  1.00E-10 #sweeps= 201 cpu clock=  2.40E-01
 tran: time= 1.0200E-11 tot_iter=       7 conv_iter=       3 cpu clock= 2.40E-01
 tran: time= 2.0200E-11 tot_iter=      11 conv_iter=       5 cpu clock= 2.40E-01
 tran: time= 3.0200E-11 tot_iter=      15 conv_iter=       7 cpu clock= 2.40E-01
 tran: time= 4.0200E-11 tot_iter=      19 conv_iter=       9 cpu clock= 2.40E-01
 tran: time= 5.0200E-11 tot_iter=      23 conv_iter=      11 cpu clock= 2.40E-01
 tran: time= 6.0200E-11 tot_iter=      27 conv_iter=      13 cpu clock= 2.40E-01
 tran: time= 7.0200E-11 tot_iter=      31 conv_iter=      15 cpu clock= 2.40E-01
 tran: time= 8.0200E-11 tot_iter=      35 conv_iter=      17 cpu clock= 2.40E-01
 tran: time= 9.0200E-11 tot_iter=      39 conv_iter=      19 cpu clock= 2.40E-01
 tran: time= 1.0000E-10 tot_iter=      43 conv_iter=      21 cpu clock= 2.40E-01
 sweep: tran tran62   end,  cpu clock=  2.40E-01 memory=    167 kb
 parameter: drain           =   -1.23E+00
 dcop: begin dcop,  cpu clock=  2.40E-01
 dcop: end dcop,  cpu clock=  2.40E-01 memory=    167 kb  tot_iter=    1145
 output: millerchar.tr0
 sweep: tran tran63   begin, stop_t=  1.00E-10 #sweeps= 201 cpu clock=  2.40E-01
 tran: time= 1.0200E-11 tot_iter=       7 conv_iter=       3 cpu clock= 2.40E-01
 tran: time= 2.0200E-11 tot_iter=      11 conv_iter=       5 cpu clock= 2.40E-01
 tran: time= 3.0200E-11 tot_iter=      15 conv_iter=       7 cpu clock= 2.40E-01
 tran: time= 4.0200E-11 tot_iter=      19 conv_iter=       9 cpu clock= 2.40E-01
 tran: time= 5.0200E-11 tot_iter=      23 conv_iter=      11 cpu clock= 2.40E-01
 tran: time= 6.0200E-11 tot_iter=      27 conv_iter=      13 cpu clock= 2.40E-01
 tran: time= 7.0200E-11 tot_iter=      31 conv_iter=      15 cpu clock= 2.40E-01
 tran: time= 8.0200E-11 tot_iter=      35 conv_iter=      17 cpu clock= 2.40E-01
 tran: time= 9.0200E-11 tot_iter=      39 conv_iter=      19 cpu clock= 2.40E-01
 tran: time= 1.0000E-10 tot_iter=      43 conv_iter=      21 cpu clock= 2.40E-01
 sweep: tran tran63   end,  cpu clock=  2.40E-01 memory=    167 kb
 parameter: drain           =   -1.21E+00
 dcop: begin dcop,  cpu clock=  2.40E-01
 dcop: end dcop,  cpu clock=  2.40E-01 memory=    167 kb  tot_iter=    1159
 output: millerchar.tr0
 sweep: tran tran64   begin, stop_t=  1.00E-10 #sweeps= 201 cpu clock=  2.40E-01
 tran: time= 1.0200E-11 tot_iter=       7 conv_iter=       3 cpu clock= 2.40E-01
 tran: time= 2.0200E-11 tot_iter=      11 conv_iter=       5 cpu clock= 2.40E-01
 tran: time= 3.0200E-11 tot_iter=      15 conv_iter=       7 cpu clock= 2.40E-01
 tran: time= 4.0200E-11 tot_iter=      19 conv_iter=       9 cpu clock= 2.40E-01
 tran: time= 5.0200E-11 tot_iter=      23 conv_iter=      11 cpu clock= 2.40E-01
 tran: time= 6.0200E-11 tot_iter=      27 conv_iter=      13 cpu clock= 2.40E-01
 tran: time= 7.0200E-11 tot_iter=      31 conv_iter=      15 cpu clock= 2.40E-01
 tran: time= 8.0200E-11 tot_iter=      35 conv_iter=      17 cpu clock= 2.40E-01
 tran: time= 9.0200E-11 tot_iter=      39 conv_iter=      19 cpu clock= 2.40E-01
 tran: time= 1.0000E-10 tot_iter=      43 conv_iter=      21 cpu clock= 2.40E-01
 sweep: tran tran64   end,  cpu clock=  2.40E-01 memory=    167 kb
 parameter: drain           =   -1.20E+00
 dcop: begin dcop,  cpu clock=  2.40E-01
 dcop: end dcop,  cpu clock=  2.40E-01 memory=    167 kb  tot_iter=    1173
 output: millerchar.tr0
 sweep: tran tran65   begin, stop_t=  1.00E-10 #sweeps= 201 cpu clock=  2.40E-01
 tran: time= 1.0200E-11 tot_iter=       7 conv_iter=       3 cpu clock= 2.40E-01
 tran: time= 2.0200E-11 tot_iter=      11 conv_iter=       5 cpu clock= 2.40E-01
 tran: time= 3.0200E-11 tot_iter=      15 conv_iter=       7 cpu clock= 2.40E-01
 tran: time= 4.0200E-11 tot_iter=      19 conv_iter=       9 cpu clock= 2.40E-01
 tran: time= 5.0200E-11 tot_iter=      23 conv_iter=      11 cpu clock= 2.40E-01
 tran: time= 6.0200E-11 tot_iter=      27 conv_iter=      13 cpu clock= 2.40E-01
 tran: time= 7.0200E-11 tot_iter=      31 conv_iter=      15 cpu clock= 2.40E-01
 tran: time= 8.0200E-11 tot_iter=      35 conv_iter=      17 cpu clock= 2.40E-01
 tran: time= 9.0200E-11 tot_iter=      39 conv_iter=      19 cpu clock= 2.40E-01
 tran: time= 1.0000E-10 tot_iter=      43 conv_iter=      21 cpu clock= 2.40E-01
 sweep: tran tran65   end,  cpu clock=  2.40E-01 memory=    167 kb
 parameter: drain           =   -1.19E+00
 dcop: begin dcop,  cpu clock=  2.40E-01
 dcop: end dcop,  cpu clock=  2.40E-01 memory=    167 kb  tot_iter=    1187
 output: millerchar.tr0
 sweep: tran tran66   begin, stop_t=  1.00E-10 #sweeps= 201 cpu clock=  2.40E-01
 tran: time= 1.0200E-11 tot_iter=       7 conv_iter=       3 cpu clock= 2.40E-01
 tran: time= 2.0200E-11 tot_iter=      11 conv_iter=       5 cpu clock= 2.40E-01
 tran: time= 3.0200E-11 tot_iter=      15 conv_iter=       7 cpu clock= 2.40E-01
 tran: time= 4.0200E-11 tot_iter=      19 conv_iter=       9 cpu clock= 2.40E-01
 tran: time= 5.0200E-11 tot_iter=      23 conv_iter=      11 cpu clock= 2.40E-01
 tran: time= 6.0200E-11 tot_iter=      27 conv_iter=      13 cpu clock= 2.40E-01
 tran: time= 7.0200E-11 tot_iter=      31 conv_iter=      15 cpu clock= 2.40E-01
 tran: time= 8.0200E-11 tot_iter=      35 conv_iter=      17 cpu clock= 2.40E-01
 tran: time= 9.0200E-11 tot_iter=      39 conv_iter=      19 cpu clock= 2.40E-01
 tran: time= 1.0000E-10 tot_iter=      43 conv_iter=      21 cpu clock= 2.40E-01
 sweep: tran tran66   end,  cpu clock=  2.40E-01 memory=    167 kb
 parameter: drain           =   -1.17E+00
 dcop: begin dcop,  cpu clock=  2.40E-01
 dcop: end dcop,  cpu clock=  2.40E-01 memory=    167 kb  tot_iter=    1201
 output: millerchar.tr0
 sweep: tran tran67   begin, stop_t=  1.00E-10 #sweeps= 201 cpu clock=  2.40E-01
 tran: time= 1.0200E-11 tot_iter=       7 conv_iter=       3 cpu clock= 2.60E-01
 tran: time= 2.0200E-11 tot_iter=      11 conv_iter=       5 cpu clock= 2.60E-01
 tran: time= 3.0200E-11 tot_iter=      15 conv_iter=       7 cpu clock= 2.60E-01
 tran: time= 4.0200E-11 tot_iter=      19 conv_iter=       9 cpu clock= 2.60E-01
 tran: time= 5.0200E-11 tot_iter=      23 conv_iter=      11 cpu clock= 2.60E-01
 tran: time= 6.0200E-11 tot_iter=      27 conv_iter=      13 cpu clock= 2.60E-01
 tran: time= 7.0200E-11 tot_iter=      31 conv_iter=      15 cpu clock= 2.60E-01
 tran: time= 8.0200E-11 tot_iter=      35 conv_iter=      17 cpu clock= 2.60E-01
 tran: time= 9.0200E-11 tot_iter=      39 conv_iter=      19 cpu clock= 2.60E-01
 tran: time= 1.0000E-10 tot_iter=      43 conv_iter=      21 cpu clock= 2.60E-01
 sweep: tran tran67   end,  cpu clock=  2.60E-01 memory=    167 kb
 parameter: drain           =   -1.16E+00
 dcop: begin dcop,  cpu clock=  2.60E-01
 dcop: end dcop,  cpu clock=  2.60E-01 memory=    167 kb  tot_iter=    1215
 output: millerchar.tr0
 sweep: tran tran68   begin, stop_t=  1.00E-10 #sweeps= 201 cpu clock=  2.60E-01
 tran: time= 1.0200E-11 tot_iter=       7 conv_iter=       3 cpu clock= 2.60E-01
 tran: time= 2.0200E-11 tot_iter=      11 conv_iter=       5 cpu clock= 2.60E-01
 tran: time= 3.0200E-11 tot_iter=      15 conv_iter=       7 cpu clock= 2.60E-01
 tran: time= 4.0200E-11 tot_iter=      19 conv_iter=       9 cpu clock= 2.60E-01
 tran: time= 5.0200E-11 tot_iter=      23 conv_iter=      11 cpu clock= 2.60E-01
 tran: time= 6.0200E-11 tot_iter=      27 conv_iter=      13 cpu clock= 2.60E-01
 tran: time= 7.0200E-11 tot_iter=      31 conv_iter=      15 cpu clock= 2.60E-01
 tran: time= 8.0200E-11 tot_iter=      35 conv_iter=      17 cpu clock= 2.60E-01
 tran: time= 9.0200E-11 tot_iter=      39 conv_iter=      19 cpu clock= 2.60E-01
 tran: time= 1.0000E-10 tot_iter=      43 conv_iter=      21 cpu clock= 2.60E-01
 sweep: tran tran68   end,  cpu clock=  2.60E-01 memory=    167 kb
 parameter: drain           =   -1.15E+00
 dcop: begin dcop,  cpu clock=  2.60E-01
 dcop: end dcop,  cpu clock=  2.60E-01 memory=    167 kb  tot_iter=    1229
 output: millerchar.tr0
 sweep: tran tran69   begin, stop_t=  1.00E-10 #sweeps= 201 cpu clock=  2.60E-01
 tran: time= 1.0200E-11 tot_iter=       7 conv_iter=       3 cpu clock= 2.60E-01
[...]
 tran: time= 6.0200E-11 tot_iter=      26 conv_iter=      13 cpu clock= 5.40E-01
 tran: time= 7.0200E-11 tot_iter=      30 conv_iter=      15 cpu clock= 5.40E-01
 tran: time= 8.0200E-11 tot_iter=      34 conv_iter=      17 cpu clock= 5.40E-01
 tran: time= 9.0200E-11 tot_iter=      38 conv_iter=      19 cpu clock= 5.40E-01
 tran: time= 1.0000E-10 tot_iter=      42 conv_iter=      21 cpu clock= 5.40E-01
 sweep: tran tran344  end,  cpu clock=  5.40E-01 memory=    167 kb
 parameter: drain           =    2.30E+00
 dcop: begin dcop,  cpu clock=  5.40E-01
 dcop: end dcop,  cpu clock=  5.40E-01 memory=    167 kb  tot_iter=    2563
 output: millerchar.tr0
 sweep: tran tran345  begin, stop_t=  1.00E-10 #sweeps= 201 cpu clock=  5.40E-01
 tran: time= 1.0200E-11 tot_iter=       6 conv_iter=       3 cpu clock= 5.40E-01
 tran: time= 2.0200E-11 tot_iter=      10 conv_iter=       5 cpu clock= 5.40E-01
 tran: time= 3.0200E-11 tot_iter=      14 conv_iter=       7 cpu clock= 5.40E-01
 tran: time= 4.0200E-11 tot_iter=      18 conv_iter=       9 cpu clock= 5.40E-01
 tran: time= 5.0200E-11 tot_iter=      22 conv_iter=      11 cpu clock= 5.40E-01
 tran: time= 6.0200E-11 tot_iter=      26 conv_iter=      13 cpu clock= 5.40E-01
 tran: time= 7.0200E-11 tot_iter=      30 conv_iter=      15 cpu clock= 5.40E-01
 tran: time= 8.0200E-11 tot_iter=      34 conv_iter=      17 cpu clock= 5.40E-01
 tran: time= 9.0200E-11 tot_iter=      38 conv_iter=      19 cpu clock= 5.40E-01
 tran: time= 1.0000E-10 tot_iter=      42 conv_iter=      21 cpu clock= 5.40E-01
 sweep: tran tran345  end,  cpu clock=  5.40E-01 memory=    167 kb
 parameter: drain           =    2.31E+00
 dcop: begin dcop,  cpu clock=  5.40E-01
 dcop: end dcop,  cpu clock=  5.40E-01 memory=    167 kb  tot_iter=    2567
 output: millerchar.tr0
 sweep: tran tran346  begin, stop_t=  1.00E-10 #sweeps= 201 cpu clock=  5.40E-01
 tran: time= 1.0200E-11 tot_iter=       6 conv_iter=       3 cpu clock= 5.40E-01
 tran: time= 2.0200E-11 tot_iter=      10 conv_iter=       5 cpu clock= 5.40E-01
 tran: time= 3.0200E-11 tot_iter=      14 conv_iter=       7 cpu clock= 5.40E-01
 tran: time= 4.0200E-11 tot_iter=      18 conv_iter=       9 cpu clock= 5.40E-01
 tran: time= 5.0200E-11 tot_iter=      22 conv_iter=      11 cpu clock= 5.40E-01
 tran: time= 6.0200E-11 tot_iter=      26 conv_iter=      13 cpu clock= 5.40E-01
 tran: time= 7.0200E-11 tot_iter=      30 conv_iter=      15 cpu clock= 5.40E-01
 tran: time= 8.0200E-11 tot_iter=      34 conv_iter=      17 cpu clock= 5.40E-01
 tran: time= 9.0200E-11 tot_iter=      38 conv_iter=      19 cpu clock= 5.40E-01
 tran: time= 1.0000E-10 tot_iter=      42 conv_iter=      21 cpu clock= 5.40E-01
 sweep: tran tran346  end,  cpu clock=  5.40E-01 memory=    167 kb
 parameter: drain           =    2.33E+00
 dcop: begin dcop,  cpu clock=  5.40E-01
 dcop: end dcop,  cpu clock=  5.40E-01 memory=    167 kb  tot_iter=    2571
 output: millerchar.tr0
 sweep: tran tran347  begin, stop_t=  1.00E-10 #sweeps= 201 cpu clock=  5.40E-01
 tran: time= 1.0200E-11 tot_iter=       6 conv_iter=       3 cpu clock= 5.40E-01
 tran: time= 2.0200E-11 tot_iter=      10 conv_iter=       5 cpu clock= 5.40E-01
 tran: time= 3.0200E-11 tot_iter=      14 conv_iter=       7 cpu clock= 5.40E-01
 tran: time= 4.0200E-11 tot_iter=      18 conv_iter=       9 cpu clock= 5.40E-01
 tran: time= 5.0200E-11 tot_iter=      22 conv_iter=      11 cpu clock= 5.40E-01
 tran: time= 6.0200E-11 tot_iter=      26 conv_iter=      13 cpu clock= 5.40E-01
 tran: time= 7.0200E-11 tot_iter=      30 conv_iter=      15 cpu clock= 5.40E-01
 tran: time= 8.0200E-11 tot_iter=      34 conv_iter=      17 cpu clock= 5.40E-01
 tran: time= 9.0200E-11 tot_iter=      38 conv_iter=      19 cpu clock= 5.40E-01
 tran: time= 1.0000E-10 tot_iter=      42 conv_iter=      21 cpu clock= 5.40E-01
 sweep: tran tran347  end,  cpu clock=  5.40E-01 memory=    167 kb
 parameter: drain           =    2.34E+00
 dcop: begin dcop,  cpu clock=  5.40E-01
 dcop: end dcop,  cpu clock=  5.40E-01 memory=    167 kb  tot_iter=    2575
 output: millerchar.tr0
 sweep: tran tran348  begin, stop_t=  1.00E-10 #sweeps= 201 cpu clock=  5.40E-01
 tran: time= 1.0200E-11 tot_iter=       6 conv_iter=       3 cpu clock= 5.40E-01
 tran: time= 2.0200E-11 tot_iter=      10 conv_iter=       5 cpu clock= 5.40E-01
 tran: time= 3.0200E-11 tot_iter=      14 conv_iter=       7 cpu clock= 5.40E-01
 tran: time= 4.0200E-11 tot_iter=      18 conv_iter=       9 cpu clock= 5.40E-01
 tran: time= 5.0200E-11 tot_iter=      22 conv_iter=      11 cpu clock= 5.40E-01
 tran: time= 6.0200E-11 tot_iter=      26 conv_iter=      13 cpu clock= 5.40E-01
 tran: time= 7.0200E-11 tot_iter=      30 conv_iter=      15 cpu clock= 5.40E-01
 tran: time= 8.0200E-11 tot_iter=      34 conv_iter=      17 cpu clock= 5.40E-01
 tran: time= 9.0200E-11 tot_iter=      38 conv_iter=      19 cpu clock= 5.40E-01
 tran: time= 1.0000E-10 tot_iter=      42 conv_iter=      21 cpu clock= 5.40E-01
 sweep: tran tran348  end,  cpu clock=  5.40E-01 memory=    167 kb
 parameter: drain           =    2.35E+00
 dcop: begin dcop,  cpu clock=  5.40E-01
 dcop: end dcop,  cpu clock=  5.40E-01 memory=    167 kb  tot_iter=    2579
 output: millerchar.tr0
 sweep: tran tran349  begin, stop_t=  1.00E-10 #sweeps= 201 cpu clock=  5.40E-01
 tran: time= 1.0200E-11 tot_iter=       6 conv_iter=       3 cpu clock= 5.40E-01
 tran: time= 2.0200E-11 tot_iter=      10 conv_iter=       5 cpu clock= 5.40E-01
 tran: time= 3.0200E-11 tot_iter=      14 conv_iter=       7 cpu clock= 5.40E-01
 tran: time= 4.0200E-11 tot_iter=      18 conv_iter=       9 cpu clock= 5.40E-01
 tran: time= 5.0200E-11 tot_iter=      22 conv_iter=      11 cpu clock= 5.40E-01
 tran: time= 6.0200E-11 tot_iter=      26 conv_iter=      13 cpu clock= 5.40E-01
 tran: time= 7.0200E-11 tot_iter=      30 conv_iter=      15 cpu clock= 5.40E-01
 tran: time= 8.0200E-11 tot_iter=      34 conv_iter=      17 cpu clock= 5.40E-01
 tran: time= 9.0200E-11 tot_iter=      38 conv_iter=      19 cpu clock= 5.40E-01
 tran: time= 1.0000E-10 tot_iter=      42 conv_iter=      21 cpu clock= 5.40E-01
 sweep: tran tran349  end,  cpu clock=  5.40E-01 memory=    167 kb
 parameter: drain           =    2.36E+00
 dcop: begin dcop,  cpu clock=  5.40E-01
 dcop: end dcop,  cpu clock=  5.40E-01 memory=    167 kb  tot_iter=    2583
 output: millerchar.tr0
 sweep: tran tran350  begin, stop_t=  1.00E-10 #sweeps= 201 cpu clock=  5.40E-01
 tran: time= 1.0200E-11 tot_iter=       6 conv_iter=       3 cpu clock= 5.40E-01
 tran: time= 2.0200E-11 tot_iter=      10 conv_iter=       5 cpu clock= 5.40E-01
 tran: time= 3.0200E-11 tot_iter=      14 conv_iter=       7 cpu clock= 5.40E-01
 tran: time= 4.0200E-11 tot_iter=      18 conv_iter=       9 cpu clock= 5.40E-01
 tran: time= 5.0200E-11 tot_iter=      22 conv_iter=      11 cpu clock= 5.40E-01
 tran: time= 6.0200E-11 tot_iter=      26 conv_iter=      13 cpu clock= 5.40E-01
 tran: time= 7.0200E-11 tot_iter=      30 conv_iter=      15 cpu clock= 5.40E-01
 tran: time= 8.0200E-11 tot_iter=      34 conv_iter=      17 cpu clock= 5.40E-01
 tran: time= 9.0200E-11 tot_iter=      38 conv_iter=      19 cpu clock= 5.40E-01
 tran: time= 1.0000E-10 tot_iter=      42 conv_iter=      21 cpu clock= 5.40E-01
 sweep: tran tran350  end,  cpu clock=  5.40E-01 memory=    167 kb
 parameter: drain           =    2.38E+00
 dcop: begin dcop,  cpu clock=  5.40E-01
 dcop: end dcop,  cpu clock=  5.40E-01 memory=    167 kb  tot_iter=    2587
 output: millerchar.tr0
 sweep: tran tran351  begin, stop_t=  1.00E-10 #sweeps= 201 cpu clock=  5.40E-01
 tran: time= 1.0200E-11 tot_iter=       6 conv_iter=       3 cpu clock= 5.40E-01
 tran: time= 2.0200E-11 tot_iter=      10 conv_iter=       5 cpu clock= 5.40E-01
 tran: time= 3.0200E-11 tot_iter=      14 conv_iter=       7 cpu clock= 5.40E-01
 tran: time= 4.0200E-11 tot_iter=      18 conv_iter=       9 cpu clock= 5.40E-01
 tran: time= 5.0200E-11 tot_iter=      22 conv_iter=      11 cpu clock= 5.40E-01
 tran: time= 6.0200E-11 tot_iter=      26 conv_iter=      13 cpu clock= 5.40E-01
 tran: time= 7.0200E-11 tot_iter=      30 conv_iter=      15 cpu clock= 5.40E-01
 tran: time= 8.0200E-11 tot_iter=      34 conv_iter=      17 cpu clock= 5.40E-01
 tran: time= 9.0200E-11 tot_iter=      38 conv_iter=      19 cpu clock= 5.40E-01
 tran: time= 1.0000E-10 tot_iter=      42 conv_iter=      21 cpu clock= 5.40E-01
 sweep: tran tran351  end,  cpu clock=  5.40E-01 memory=    167 kb
 parameter: drain           =    2.39E+00
 dcop: begin dcop,  cpu clock=  5.40E-01
 dcop: end dcop,  cpu clock=  5.40E-01 memory=    167 kb  tot_iter=    2591
 output: millerchar.tr0
 sweep: tran tran352  begin, stop_t=  1.00E-10 #sweeps= 201 cpu clock=  5.40E-01
 tran: time= 1.0200E-11 tot_iter=       6 conv_iter=       3 cpu clock= 5.40E-01
 tran: time= 2.0200E-11 tot_iter=      10 conv_iter=       5 cpu clock= 5.40E-01
 tran: time= 3.0200E-11 tot_iter=      14 conv_iter=       7 cpu clock= 5.40E-01
 tran: time= 4.0200E-11 tot_iter=      18 conv_iter=       9 cpu clock= 5.40E-01
 tran: time= 5.0200E-11 tot_iter=      22 conv_iter=      11 cpu clock= 5.40E-01
 tran: time= 6.0200E-11 tot_iter=      26 conv_iter=      13 cpu clock= 5.40E-01
 tran: time= 7.0200E-11 tot_iter=      30 conv_iter=      15 cpu clock= 5.40E-01
 tran: time= 8.0200E-11 tot_iter=      34 conv_iter=      17 cpu clock= 5.40E-01
 tran: time= 9.0200E-11 tot_iter=      38 conv_iter=      19 cpu clock= 5.40E-01
 tran: time= 1.0000E-10 tot_iter=      42 conv_iter=      21 cpu clock= 5.40E-01
 sweep: tran tran352  end,  cpu clock=  5.40E-01 memory=    167 kb
 parameter: drain           =    2.40E+00
 dcop: begin dcop,  cpu clock=  5.40E-01
 dcop: end dcop,  cpu clock=  5.40E-01 memory=    167 kb  tot_iter=    2595
 output: millerchar.tr0
 sweep: tran tran353  begin, stop_t=  1.00E-10 #sweeps= 201 cpu clock=  5.40E-01
 tran: time= 1.0200E-11 tot_iter=       6 conv_iter=       3 cpu clock= 5.40E-01
 tran: time= 2.0200E-11 tot_iter=      10 conv_iter=       5 cpu clock= 5.40E-01
 tran: time= 3.0200E-11 tot_iter=      14 conv_iter=       7 cpu clock= 5.40E-01
 tran: time= 4.0200E-11 tot_iter=      18 conv_iter=       9 cpu clock= 5.40E-01
 tran: time= 5.0200E-11 tot_iter=      22 conv_iter=      11 cpu clock= 5.40E-01
 tran: time= 6.0200E-11 tot_iter=      26 conv_iter=      13 cpu clock= 5.40E-01
 tran: time= 7.0200E-11 tot_iter=      30 conv_iter=      15 cpu clock= 5.40E-01
 tran: time= 8.0200E-11 tot_iter=      34 conv_iter=      17 cpu clock= 5.40E-01
 tran: time= 9.0200E-11 tot_iter=      38 conv_iter=      19 cpu clock= 5.40E-01
 tran: time= 1.0000E-10 tot_iter=      42 conv_iter=      21 cpu clock= 5.40E-01
 sweep: tran tran353  end,  cpu clock=  5.40E-01 memory=    167 kb
 parameter: drain           =    2.41E+00
 dcop: begin dcop,  cpu clock=  5.40E-01
 dcop: end dcop,  cpu clock=  5.40E-01 memory=    167 kb  tot_iter=    2599
 output: millerchar.tr0
 sweep: tran tran354  begin, stop_t=  1.00E-10 #sweeps= 201 cpu clock=  5.40E-01
 tran: time= 1.0200E-11 tot_iter=       6 conv_iter=       3 cpu clock= 5.40E-01
 tran: time= 2.0200E-11 tot_iter=      10 conv_iter=       5 cpu clock= 5.40E-01
 tran: time= 3.0200E-11 tot_iter=      14 conv_iter=       7 cpu clock= 5.40E-01
 tran: time= 4.0200E-11 tot_iter=      18 conv_iter=       9 cpu clock= 5.40E-01
 tran: time= 5.0200E-11 tot_iter=      22 conv_iter=      11 cpu clock= 5.40E-01
 tran: time= 6.0200E-11 tot_iter=      26 conv_iter=      13 cpu clock= 5.40E-01
 tran: time= 7.0200E-11 tot_iter=      30 conv_iter=      15 cpu clock= 5.40E-01
 tran: time= 8.0200E-11 tot_iter=      34 conv_iter=      17 cpu clock= 5.40E-01
 tran: time= 9.0200E-11 tot_iter=      38 conv_iter=      19 cpu clock= 5.40E-01
 tran: time= 1.0000E-10 tot_iter=      42 conv_iter=      21 cpu clock= 5.40E-01
 sweep: tran tran354  end,  cpu clock=  5.40E-01 memory=    167 kb
 parameter: drain           =    2.42E+00
 dcop: begin dcop,  cpu clock=  5.40E-01
 dcop: end dcop,  cpu clock=  5.40E-01 memory=    167 kb  tot_iter=    2603
 output: millerchar.tr0
 sweep: tran tran355  begin, stop_t=  1.00E-10 #sweeps= 201 cpu clock=  5.40E-01
 tran: time= 1.0200E-11 tot_iter=       6 conv_iter=       3 cpu clock= 5.40E-01
 tran: time= 2.0200E-11 tot_iter=      10 conv_iter=       5 cpu clock= 5.40E-01
 tran: time= 3.0200E-11 tot_iter=      14 conv_iter=       7 cpu clock= 5.40E-01
 tran: time= 4.0200E-11 tot_iter=      18 conv_iter=       9 cpu clock= 5.40E-01
 tran: time= 5.0200E-11 tot_iter=      22 conv_iter=      11 cpu clock= 5.40E-01
 tran: time= 6.0200E-11 tot_iter=      26 conv_iter=      13 cpu clock= 5.40E-01
 tran: time= 7.0200E-11 tot_iter=      30 conv_iter=      15 cpu clock= 5.40E-01
 tran: time= 8.0200E-11 tot_iter=      34 conv_iter=      17 cpu clock= 5.40E-01
 tran: time= 9.0200E-11 tot_iter=      38 conv_iter=      19 cpu clock= 5.40E-01
 tran: time= 1.0000E-10 tot_iter=      42 conv_iter=      21 cpu clock= 5.40E-01
 sweep: tran tran355  end,  cpu clock=  5.40E-01 memory=    167 kb
 parameter: drain           =    2.44E+00
 dcop: begin dcop,  cpu clock=  5.40E-01
 dcop: end dcop,  cpu clock=  5.40E-01 memory=    167 kb  tot_iter=    2607
 output: millerchar.tr0
 sweep: tran tran356  begin, stop_t=  1.00E-10 #sweeps= 201 cpu clock=  5.40E-01
 tran: time= 1.0200E-11 tot_iter=       6 conv_iter=       3 cpu clock= 5.40E-01
 tran: time= 2.0200E-11 tot_iter=      10 conv_iter=       5 cpu clock= 5.40E-01
 tran: time= 3.0200E-11 tot_iter=      14 conv_iter=       7 cpu clock= 5.40E-01
 tran: time= 4.0200E-11 tot_iter=      18 conv_iter=       9 cpu clock= 5.40E-01
 tran: time= 5.0200E-11 tot_iter=      22 conv_iter=      11 cpu clock= 5.40E-01
 tran: time= 6.0200E-11 tot_iter=      26 conv_iter=      13 cpu clock= 5.40E-01
 tran: time= 7.0200E-11 tot_iter=      30 conv_iter=      15 cpu clock= 5.40E-01
 tran: time= 8.0200E-11 tot_iter=      34 conv_iter=      17 cpu clock= 5.40E-01
 tran: time= 9.0200E-11 tot_iter=      38 conv_iter=      19 cpu clock= 5.40E-01
 tran: time= 1.0000E-10 tot_iter=      42 conv_iter=      21 cpu clock= 5.40E-01
 sweep: tran tran356  end,  cpu clock=  5.40E-01 memory=    167 kb
 parameter: drain           =    2.45E+00
 dcop: begin dcop,  cpu clock=  5.40E-01
 dcop: end dcop,  cpu clock=  5.40E-01 memory=    167 kb  tot_iter=    2611
 output: millerchar.tr0
 sweep: tran tran357  begin, stop_t=  1.00E-10 #sweeps= 201 cpu clock=  5.40E-01
 tran: time= 1.0200E-11 tot_iter=       6 conv_iter=       3 cpu clock= 5.40E-01
 tran: time= 2.0200E-11 tot_iter=      10 conv_iter=       5 cpu clock= 5.40E-01
 tran: time= 3.0200E-11 tot_iter=      14 conv_iter=       7 cpu clock= 5.40E-01
 tran: time= 4.0200E-11 tot_iter=      18 conv_iter=       9 cpu clock= 5.40E-01
 tran: time= 5.0200E-11 tot_iter=      22 conv_iter=      11 cpu clock= 5.40E-01
 tran: time= 6.0200E-11 tot_iter=      26 conv_iter=      13 cpu clock= 5.40E-01
 tran: time= 7.0200E-11 tot_iter=      30 conv_iter=      15 cpu clock= 5.40E-01
 tran: time= 8.0200E-11 tot_iter=      34 conv_iter=      17 cpu clock= 5.40E-01
 tran: time= 9.0200E-11 tot_iter=      38 conv_iter=      19 cpu clock= 5.40E-01
 tran: time= 1.0000E-10 tot_iter=      42 conv_iter=      21 cpu clock= 5.40E-01
 sweep: tran tran357  end,  cpu clock=  5.40E-01 memory=    167 kb
 parameter: drain           =    2.46E+00
 dcop: begin dcop,  cpu clock=  5.60E-01
 dcop: end dcop,  cpu clock=  5.60E-01 memory=    167 kb  tot_iter=    2615
 output: millerchar.tr0
 sweep: tran tran358  begin, stop_t=  1.00E-10 #sweeps= 201 cpu clock=  5.60E-01
 tran: time= 1.0200E-11 tot_iter=       6 conv_iter=       3 cpu clock= 5.60E-01
 tran: time= 2.0200E-11 tot_iter=      10 conv_iter=       5 cpu clock= 5.60E-01
 tran: time= 3.0200E-11 tot_iter=      14 conv_iter=       7 cpu clock= 5.60E-01
 tran: time= 4.0200E-11 tot_iter=      18 conv_iter=       9 cpu clock= 5.60E-01
 tran: time= 5.0200E-11 tot_iter=      22 conv_iter=      11 cpu clock= 5.60E-01
 tran: time= 6.0200E-11 tot_iter=      26 conv_iter=      13 cpu clock= 5.60E-01
 tran: time= 7.0200E-11 tot_iter=      30 conv_iter=      15 cpu clock= 5.60E-01
 tran: time= 8.0200E-11 tot_iter=      34 conv_iter=      17 cpu clock= 5.60E-01
 tran: time= 9.0200E-11 tot_iter=      38 conv_iter=      19 cpu clock= 5.60E-01
 tran: time= 1.0000E-10 tot_iter=      42 conv_iter=      21 cpu clock= 5.60E-01
 sweep: tran tran358  end,  cpu clock=  5.60E-01 memory=    167 kb
 parameter: drain           =    2.48E+00
 dcop: begin dcop,  cpu clock=  5.60E-01
 dcop: end dcop,  cpu clock=  5.60E-01 memory=    167 kb  tot_iter=    2619
 output: millerchar.tr0
 sweep: tran tran359  begin, stop_t=  1.00E-10 #sweeps= 201 cpu clock=  5.60E-01
 tran: time= 1.0200E-11 tot_iter=       6 conv_iter=       3 cpu clock= 5.60E-01
 tran: time= 2.0200E-11 tot_iter=      10 conv_iter=       5 cpu clock= 5.60E-01
 tran: time= 3.0200E-11 tot_iter=      14 conv_iter=       7 cpu clock= 5.60E-01
 tran: time= 4.0200E-11 tot_iter=      18 conv_iter=       9 cpu clock= 5.60E-01
 tran: time= 5.0200E-11 tot_iter=      22 conv_iter=      11 cpu clock= 5.60E-01
 tran: time= 6.0200E-11 tot_iter=      26 conv_iter=      13 cpu clock= 5.60E-01
 tran: time= 7.0200E-11 tot_iter=      30 conv_iter=      15 cpu clock= 5.60E-01
 tran: time= 8.0200E-11 tot_iter=      34 conv_iter=      17 cpu clock= 5.60E-01
 tran: time= 9.0200E-11 tot_iter=      38 conv_iter=      19 cpu clock= 5.60E-01
 tran: time= 1.0000E-10 tot_iter=      42 conv_iter=      21 cpu clock= 5.60E-01
 sweep: tran tran359  end,  cpu clock=  5.60E-01 memory=    167 kb
 parameter: drain           =    2.49E+00
 dcop: begin dcop,  cpu clock=  5.60E-01
 dcop: end dcop,  cpu clock=  5.60E-01 memory=    167 kb  tot_iter=    2623
 output: millerchar.tr0
 sweep: tran tran360  begin, stop_t=  1.00E-10 #sweeps= 201 cpu clock=  5.60E-01
 tran: time= 1.0200E-11 tot_iter=       6 conv_iter=       3 cpu clock= 5.60E-01
 tran: time= 2.0200E-11 tot_iter=      10 conv_iter=       5 cpu clock= 5.60E-01
 tran: time= 3.0200E-11 tot_iter=      14 conv_iter=       7 cpu clock= 5.60E-01
 tran: time= 4.0200E-11 tot_iter=      18 conv_iter=       9 cpu clock= 5.60E-01
 tran: time= 5.0200E-11 tot_iter=      22 conv_iter=      11 cpu clock= 5.60E-01
 tran: time= 6.0200E-11 tot_iter=      26 conv_iter=      13 cpu clock= 5.60E-01
 tran: time= 7.0200E-11 tot_iter=      30 conv_iter=      15 cpu clock= 5.60E-01
 tran: time= 8.0200E-11 tot_iter=      34 conv_iter=      17 cpu clock= 5.60E-01
 tran: time= 9.0200E-11 tot_iter=      38 conv_iter=      19 cpu clock= 5.60E-01
 tran: time= 1.0000E-10 tot_iter=      42 conv_iter=      21 cpu clock= 5.60E-01
 sweep: tran tran360  end,  cpu clock=  5.60E-01 memory=    167 kb
 parameter: drain           =    2.50E+00
 dcop: begin dcop,  cpu clock=  5.60E-01
 dcop: end dcop,  cpu clock=  5.60E-01 memory=    167 kb  tot_iter=    2627
 output: millerchar.tr0
 sweep: tran tran361  begin, stop_t=  1.00E-10 #sweeps= 201 cpu clock=  5.60E-01
 tran: time= 1.0200E-11 tot_iter=       6 conv_iter=       3 cpu clock= 5.60E-01
 tran: time= 2.0200E-11 tot_iter=      10 conv_iter=       5 cpu clock= 5.60E-01
 tran: time= 3.0200E-11 tot_iter=      14 conv_iter=       7 cpu clock= 5.60E-01
 tran: time= 4.0200E-11 tot_iter=      18 conv_iter=       9 cpu clock= 5.60E-01
 tran: time= 5.0200E-11 tot_iter=      22 conv_iter=      11 cpu clock= 5.60E-01
 tran: time= 6.0200E-11 tot_iter=      26 conv_iter=      13 cpu clock= 5.60E-01
 tran: time= 7.0200E-11 tot_iter=      30 conv_iter=      15 cpu clock= 5.60E-01
 tran: time= 8.0200E-11 tot_iter=      34 conv_iter=      17 cpu clock= 5.60E-01
 tran: time= 9.0200E-11 tot_iter=      38 conv_iter=      19 cpu clock= 5.60E-01
 tran: time= 1.0000E-10 tot_iter=      42 conv_iter=      21 cpu clock= 5.60E-01
 sweep: tran tran361  end,  cpu clock=  5.60E-01 memory=    167 kb
 sweep: parameter       parameter       1 end
>info:         ***** hspice job concluded
 lic: Release hspice token(s)
