Using: /usr/bin/time -p /synopsys/HSPICE/hspice/linux/hspice nodechar.sp
 ****** HSPICE -- F-2011.09 32-BIT (Sep  5 2011) linux ******                   
  Copyright (C) 2011 Synopsys, Inc. All Rights Reserved.                        
  Unpublished-rights reserved under US copyright laws.
  This program is protected by law and is subject to the
  terms and conditions of the license agreement from Synopsys.
  Use of this program is your acceptance to be bound by the
  license agreement. HSPICE is the trademark of Synopsys, Inc.
  Input File: nodechar.sp                                                       
  Command line options: nodechar.sp
 lic: No 'setenv LM_LICENSE_FILE' in current environment' 
 lic:  
 lic: FLEXlm: v10.8 
 lic: USER:   watkins              HOSTNAME: engr-e132-d10 
 lic: HOSTID: 002564bd04da         PID:      10190 
 lic: Using FLEXlm license file: 
 lic: 28000@131.230.191.194 
 lic: Checkout 1 hspice 
 lic: License/Maintenance for hspice will expire on 30-dec-2015/2014.09 
 lic: 1(in_use)/50(total) FLOATING license(s) on SERVER 131.230.191.194 
 lic:   
 Init: read install configuration file: /synopsys/HSPICE/hspice/meta.cfg
  **warning** option measfile is disabled due to no .alter in the netlist
1****** HSPICE -- F-2011.09 32-BIT (Sep  5 2011) linux ******                   
 ******  
 $ calculate delay of gate

  ******  circuit name directory
 circuit number to circuit name directory
   number circuitname                     definition         multiplier
        0 main circuit
        1 xnand1.                         nand2inp           1.00 
        2 xnand2.                         nand2inp           1.00 
1****** HSPICE -- F-2011.09 32-BIT (Sep  5 2011) linux ******                   
 ******  
 $ calculate delay of gate

  ******  mos   model parameters tnom=  25.000 temp=  25.000 *****
 Model Name: cmosn  
 BSIM4 Model (Level 54)
    MOBMOD = 2
    BINUNIT = 1
    PARAMCHK = 1
    CAPMOD = 2
    DIOMOD = 1
    RDSMOD = 0
    TRNQSMOD = 0
    ACNQSMOD = 0
    RBODYMOD = 0
    RGATEMOD = 0
    PERMOD = 1
    GEOMOD = 0
    RGEOMOD = 0
    FNOIMOD = 1
    TNOIMOD = 0
    IGCMOD = 0
    IGBMOD = 0
    STIMOD = 2
    VBFWDMOD = 0
    VERSION =    4.3 
    TOXREF =  3e-09 
    TOXE = 2.2e-09 
    TOXP = 2.2e-09 
    TOXM = 2.2e-09 
    DTOX =      0 
    EPSROX =    3.9 
    CDSC = 0.00024 
    CDSCB =      0 
    CDSCD =      0 
    CIT =      0 
    NFACTOR =  1.913 
    XJ = 1.5e-07 
    VSAT = 7.526e+05 
    A0 =      2 
    AGS =      0 
    A1 =      0 
    A2 =      1 
    AT = 3.3e+04 
    KETA =   0.05 
    NSUB =  6e+16 
    NDEP = 1.7e+17 
    NSD =  1e+20 
    NGATE =  1e+20 
    GAMMA1 =      0 
    GAMMA2 =      0 
    VBX =      0 
    VBM =     -3 
    XT = 1.55e-07 
    K1 =  0.546 
    KT1 =  -0.11 
    KT1L =      0 
    KT2 =  0.022 
    K2 = -0.1063 
    K3 = 0.001001 
    K3B =  8.256 
    LPE0 = 8.091e-08 
    LPEB = 6.541e-08 
    DVTP0 =      0 
    DVTP1 =      0 
    W0 =  1e-10 
    DVT0 = 0.02411 
    DVT1 = 0.0355 
    DVT2 = -5.083e-05 
    DVT0W =      0 
    DVT1W =      0 
    DVT2W = -0.032 
    DROUT = 0.6772 
    DSUB = 0.1841 
    VTH0 = 0.2637 
    EU = 0.1099 
    UA = 5.008e-15 
    UA1 =  1e-09 
    UB =  1e-26 
    UB1 = -1e-18 
    UC = -1e-10 
    UC1 = -5.6e-11 
    U0 =  180.6 
    UTE =   -1.5 
    VOFF = -0.03494 
    VOFFL =      0 
    MINV =      0 
    FPROUT = 0.000169 
    PDITS =      0 
    PDITSD =      0 
    PDITSL =      0 
    DELTA = 0.001742 
    RDSW =    100 
    RDSWMIN =    100 
    RDWMIN =      0 
    RSWMIN =      0 
    RDW =    100 
    RSW =    100 
    PRWG =      3 
    PRWB = 0.0997 
    PRT =      0 
    ETA0 = 0.002948 
    ETAB = -0.01177 
    PCLM = 0.4021 
    PDIBLC1 = 0.6278 
    PDIBLC2 =   0.01 
    PDIBLCB = -0.001 
    PSCBE1 = 5.553e+08 
    PSCBE2 = 3.093e-06 
    PVAG = 0.04912 
    WR =      1 
    DWG = -2.359e-08 
    DWB = 4.286e-08 
    XW =      0 
    XWREF =      0 
    XL =      0 
    XLREF =      0 
    B0 = 1.249e-06 
    B1 =  1e-07 
    ALPHA0 =      0 
    ALPHA1 =      0 
    AGIDL =      0 
    BGIDL = 2.3e+09 
    CGIDL =    0.5 
    PHIN =      0 
    EGIDL =    0.8 
    AIGC =   0.43 
    BIGC =  0.054 
    CIGC =  0.075 
    AIGSD =   0.43 
    BIGSD =  0.054 
    CIGSD =  0.075 
    AIGBACC =   0.43 
    BIGBACC =  0.054 
    CIGBACC =  0.075 
    AIGBINV =   0.35 
    BIGBINV =   0.03 
    CIGBINV =  0.006 
    NIGC =      1 
    NIGBINV =      3 
    NIGBACC =      1 
    NTOX =      1 
    EIGBINV =    1.1 
    PIGCD =      1 
    POXEDGE =      1 
    XRCRG1 =     12 
    TNOIA =    1.5 
    TNOIB =    3.5 
    NTNOI =      1 
    XRCRG2 =      1 
    BETA0 =     30 
    IJTHDFWD =    0.1 
    IJTHSFWD =    0.1 
    IJTHDREV =    0.1 
    IJTHSREV =    0.1 
    XJBVD =      1 
    XJBVS =      1 
    BVD =     10 
    BVS =     10 
    VFB =     -1 
    GBMIN =  1e-12 
    RBDB =     50 
    RBPB =     50 
    RBSB =     50 
    RBPS =     50 
    RBPD =     50 
    CGSL =      0 
    CGDL =      0 
    CKAPPAS =    0.6 
    CKAPPAD =    0.6 
    CF =      0 
    CLC =  1e-07 
    CLE =    0.6 
    DWC = 4.514e-15 
    DLC = 3.005e-12 
    DLCIG = 3.005e-12 
    DWJ = 4.514e-15 
    VFBCV =     -1 
    ACDE =      1 
    MOIN =     15 
    NOFF =      1 
    VOFFCV =      0 
    DMCG =      0 
    DMCI =      0 
    DMDG =      0 
    DMCGT =      0 
    XGW =      0 
    XGL =      0 
    RSHG =    0.1 
    NGCON =      1 
    TCJ =      0 
    TPB =      0 
    TCJSW =      0 
    TPBSW =      0 
    TCJSWG =      0 
    TPBSWG =      0 
    SK0 =      0 
    SK1 =      0 
    SK2 =      0 
    SL =  2e-06 
    SW =  2e-06 
    K =      0 
    WKETA = 0.03991 
    PVSAT =   1839 
    PKETA = -0.001059 
    TNOM =  300.1 
    CGSO =  1e-10 
    CGDO =  1e-10 
    CGBO =      0 
    XPART =    0.5 
    RSH =    7.2 
    JSS = 0.0001 
    JSWS =      0 
    JSWGS =      0 
    PBS =      1 
    MJS = 0.3003 
    PBSWS =    0.4 
    MJSWS = 0.2357 
    CJS = 0.000893 
    CJSWS = 1.59e-10 
    NJS =      1 
    PBSWGS = 0.4291 
    MJSWGS = 0.1758 
    CJSWGS = 3.065e-11 
    XTIS =      3 
    JSD = 0.0001 
    JSWD =      0 
    JSWGD =      0 
    PBD =      1 
    MJD = 0.3003 
    PBSWD =    0.4 
    MJSWD = 0.2357 
    CJD = 0.000893 
    CJSWD = 1.59e-10 
    NJD =      1 
    PBSWGD = 0.4291 
    MJSWGD = 0.1758 
    CJSWGD = 3.065e-11 
    XTID =      3 
    LMLT =      1 
    WMLT =      1 
    LINT = 3.005e-12 
    LL =      0 
    LLC =      0 
    LLN =      1 
    LW =      0 
    LWC =      0 
    LWN =      1 
    LWL =      0 
    LWLC =      0 
    LMIN =      0 
    LMAX =      1 
    WINT = 4.514e-15 
    WL =      0 
    WLC =      0 
    WLN =      1 
    WW =      0 
    WWC =      0 
    WWN =      1 
    WWL =      0 
    WWLC =      0 
    WMIN =      0 
    WMAX =      1 
    NOIA = 6.25e+41 
    NOIB = 3.125e+26 
    NOIC = 8.75e+09 
    EM = 4.1e+07 
    EF =      1 
    AF =      1 
    KF =      0 
    TRS =      0 
    TRD =      0 
    TEMPMOD  =      0 
    LAMBDA   =      0 
    VTL      =  2e+05 m/s
    LC       =  5e-09 
    XN       =      3 
    LLAMBDA  =      0 
    LVTL     =      0 
    LXN      =      0 
    WLAMBDA  =      0 
    WVTL     =      0 
    WXN      =      0 
    PLAMBDA  =      0 
    PVTL     =      0 
    PXN      =      0 
    RNOIA    =  0.577 
    RNOIB    =   0.37 
    SAREF(SA0) = 5.5e-07 m
    SBREF(SB0) = 5.5e-07 m
    WLOD     =  2e-06 m
    KU0      = -4e-07 1/m
    KVSAT    =   0.01 
    KVTH0    =  1e-09 m
    TKU0     =      0 
    LLODKU0  =  1.087 
    WLODKU0  =  1.099 
    LLODVTH  =      1 
    WLODVTH  =      1 
    LKU0     =  1e-06 
    WKU0     =  1e-06 
    PKU0     =      0 
    LKVTH0   = 1.1e-07 
    WKVTH0   = 1.1e-07 
    PKVTH0   =      0 
    STK2     =      0 
    LODK2    =      1 
    STETA0   =      0 
    LODETA0  =      1 
    LXRCRG1  =      0 
    WXRCRG1  =      0 
    PXRCRG1  =      0 
    LXRCRG2  =      0 
    WXRCRG2  =      0 
    PXRCRG2  =      0 
 Model Name: cmosp  
 BSIM4 Model (Level 54)
    MOBMOD = 2
    BINUNIT = 1
    PARAMCHK = 1
    CAPMOD = 2
    DIOMOD = 1
    RDSMOD = 0
    TRNQSMOD = 0
    ACNQSMOD = 0
    RBODYMOD = 0
    RGATEMOD = 0
    PERMOD = 1
    GEOMOD = 0
    RGEOMOD = 0
    FNOIMOD = 1
    TNOIMOD = 0
    IGCMOD = 0
    IGBMOD = 0
    STIMOD = 1
    VBFWDMOD = 0
    VERSION =    4.3 
    TOXREF =  3e-09 
    TOXE = 2.4e-09 
    TOXP = 2.4e-09 
    TOXM = 2.4e-09 
    DTOX =      0 
    EPSROX =    3.9 
    CDSC = 0.00024 
    CDSCB =      0 
    CDSCD =      0 
    CIT =      0 
    NFACTOR = 0.003481 
    XJ = 1.5e-07 
    VSAT = 8.4e+04 
    A0 =      2 
    AGS =  2.087 
    A1 =      0 
    A2 =      1 
    AT = 3.3e+04 
    KETA =   0.05 
    NSUB =  6e+16 
    NDEP = 1.7e+17 
    NSD =  1e+20 
    NGATE =  1e+20 
    GAMMA1 =      0 
    GAMMA2 =      0 
    VBX =      0 
    VBM =     -3 
    XT = 1.55e-07 
    K1 = 0.5378 
    KT1 =  -0.11 
    KT1L =      0 
    KT2 =  0.022 
    K2 = -0.1001 
    K3 =  87.19 
    K3B =     10 
    LPE0 = 3.625e-08 
    LPEB = -1.473e-08 
    DVTP0 =      0 
    DVTP1 =      0 
    W0 = 1.983e-06 
    DVT0 = 0.009269 
    DVT1 = 0.05083 
    DVT2 = -5.289e-05 
    DVT0W =      0 
    DVT1W =      0 
    DVT2W = -0.032 
    DROUT = 0.9794 
    DSUB =      1 
    VTH0 = -0.1829 
    EU =  1.638 
    UA = 2.065e-15 
    UA1 =  1e-09 
    UB =  1e-23 
    UB1 = -1e-18 
    UC = -1.838e-17 
    UC1 = -5.6e-11 
    U0 =    100 
    UTE =   -1.5 
    VOFF = -0.04221 
    VOFFL =      0 
    MINV =      0 
    FPROUT = 1.439e-05 
    PDITS =      0 
    PDITSD =      0 
    PDITSL =      0 
    DELTA = 0.01356 
    RDSW =  872.6 
    RDSWMIN =    100 
    RDWMIN =      0 
    RSWMIN =      0 
    RDW =    100 
    RSW =    100 
    PRWG = 0.1222 
    PRWB =    0.1 
    PRT =      0 
    ETA0 =  1e-05 
    ETAB =      0 
    PCLM =  0.534 
    PDIBLC1 = 0.5062 
    PDIBLC2 = 0.00473 
    PDIBLCB =      0 
    PSCBE1 = 1.696e+08 
    PSCBE2 =  3e-06 
    PVAG = 0.4223 
    WR =      1 
    DWG = -7.761e-08 
    DWB = 2.989e-08 
    XW =      0 
    XWREF =      0 
    XL =      0 
    XLREF =      0 
    B0 = 1.734e-07 
    B1 =  1e-07 
    ALPHA0 =      0 
    ALPHA1 =      0 
    AGIDL =      0 
    BGIDL = 2.3e+09 
    CGIDL =    0.5 
    PHIN =      0 
    EGIDL =    0.8 
    AIGC =   0.31 
    BIGC =  0.024 
    CIGC =   0.03 
    AIGSD =   0.31 
    BIGSD =  0.024 
    CIGSD =   0.03 
    AIGBACC =   0.43 
    BIGBACC =  0.054 
    CIGBACC =  0.075 
    AIGBINV =   0.35 
    BIGBINV =   0.03 
    CIGBINV =  0.006 
    NIGC =      1 
    NIGBINV =      3 
    NIGBACC =      1 
    NTOX =      1 
    EIGBINV =    1.1 
    PIGCD =      1 
    POXEDGE =      1 
    XRCRG1 =     12 
    TNOIA =    1.5 
    TNOIB =    3.5 
    NTNOI =      1 
    XRCRG2 =      1 
    BETA0 =     30 
    IJTHDFWD =    0.1 
    IJTHSFWD =    0.1 
    IJTHDREV =    0.1 
    IJTHSREV =    0.1 
    XJBVD =      1 
    XJBVS =      1 
    BVD =     10 
    BVS =     10 
    VFB =     -1 
    GBMIN =  1e-12 
    RBDB =     50 
    RBPB =     50 
    RBSB =     50 
    RBPS =     50 
    RBPD =     50 
    CGSL =      0 
    CGDL =      0 
    CKAPPAS =    0.6 
    CKAPPAD =    0.6 
    CF =      0 
    CLC =  1e-07 
    CLE =    0.6 
    DWC = 1.54e-08 
    DLC = 1.382e-10 
    DLCIG = 1.382e-10 
    DWJ = 1.54e-08 
    VFBCV =     -1 
    ACDE =      1 
    MOIN =     15 
    NOFF =      1 
    VOFFCV =      0 
    DMCG =      0 
    DMCI =      0 
    DMDG =      0 
    DMCGT =      0 
    XGW =      0 
    XGL =      0 
    RSHG =    0.1 
    NGCON =      1 
    TCJ =      0 
    TPB =      0 
    TCJSW =      0 
    TPBSW =      0 
    TCJSWG =      0 
    TPBSWG =      0 
    SK0 =      0 
    SK1 =      0 
    SK2 =      0 
    SL =  2e-06 
    SW =  2e-06 
    K =      0 
    WKETA = -0.03641 
    PVSAT =   -100 
    TNOM =  300.1 
    CGSO =  1e-10 
    CGDO =  1e-10 
    CGBO =      0 
    XPART =    0.5 
    RSH =    7.6 
    JSS = 0.0001 
    JSWS =      0 
    JSWGS =      0 
    PBS =      1 
    MJS =  0.475 
    PBSWS =  0.965 
    MJSWS =  0.432 
    CJS = 6.434e-09 
    CJSWS = 1.084e-09 
    NJS =      1 
    PBSWGS = 0.9009 
    MJSWGS = 0.2169 
    CJSWGS = 6.3e-11 
    XTIS =      3 
    JSD = 0.0001 
    JSWD =      0 
    JSWGD =      0 
    PBD =      1 
    MJD =  0.475 
    PBSWD =  0.965 
    MJSWD =  0.432 
    CJD = 6.434e-09 
    CJSWD = 1.084e-09 
    NJD =      1 
    PBSWGD = 0.9009 
    MJSWGD = 0.2169 
    CJSWGD = 6.3e-11 
    XTID =      3 
    LMLT =      1 
    WMLT =      1 
    LINT = 1.382e-10 
    LL =      0 
    LLC =      0 
    LLN =      1 
    LW =      0 
    LWC =      0 
    LWN =      1 
    LWL =      0 
    LWLC =      0 
    LMIN =      0 
    LMAX =      1 
    WINT = 1.54e-08 
    WL =      0 
    WLC =      0 
    WLN =      1 
    WW =      0 
    WWC =      0 
    WWN =      1 
    WWL =      0 
    WWLC =      0 
    WMIN =      0 
    WMAX =      1 
    NOIA = 6.188e+40 
    NOIB = 1.5e+25 
    NOIC = 8.75e+09 
    EM = 4.1e+07 
    EF =      1 
    AF =      1 
    KF =      0 
    TRS =      0 
    TRD =      0 
    TEMPMOD  =      0 
    LAMBDA   =      0 
    VTL      =  2e+05 m/s
    LC       =  5e-09 
    XN       =      3 
    LLAMBDA  =      0 
    LVTL     =      0 
    LXN      =      0 
    WLAMBDA  =      0 
    WVTL     =      0 
    WXN      =      0 
    PLAMBDA  =      0 
    PVTL     =      0 
    PXN      =      0 
    RNOIA    =  0.577 
    RNOIB    =   0.37 
    SAREF(SA0) =  1e-06 m
    SBREF(SB0) =  1e-06 m
    WLOD     =      0 m
    KU0      =      0 1/m
    KVSAT    =      0 
    KVTH0    =      0 m
    TKU0     =      0 
    LLODKU0  =      0 
    WLODKU0  =      0 
    LLODVTH  =      0 
    WLODVTH  =      0 
    LKU0     =      0 
    WKU0     =      0 
    PKU0     =      0 
    LKVTH0   =      0 
    WKVTH0   =      0 
    PKVTH0   =      0 
    STK2     =      0 
    LODK2    =      1 
    STETA0   =      0 
    LODETA0  =      1 
    LXRCRG1  =      0 
    WXRCRG1  =      0 
    PXRCRG1  =      0 
    LXRCRG2  =      0 
    WXRCRG2  =      0 
    PXRCRG2  =      0 
  **info** (nodechar.sp:20) DC voltage reset to initial transient source value              in source        0:iup                 new dc=  0.0000D+00
  **warning** (nodechar.sp:58) Unable to find referenced node p12; Output variable ignored. Specify a valid node.
  **warning** (nodechar.sp:58) .print/.probe statement contains unused output; the unused output is ignored.
  
      
 **info** set option symb=1 internally to help for convergence.
 *****************************************************************
 ******  option summary
 ******
 runlvl  = 3         bypass  = 2         
  Opening plot unit= 15
 file=nodechar.pa0                                                             

1****** HSPICE -- F-2011.09 32-BIT (Sep  5 2011) linux ******                   
 ******  
 $ calculate delay of gate

  ******  operating point information tnom=  25.000 temp=  25.000 *****
 ***** operating point status is voltage   simulation time is     0.     
    node    =voltage      node    =voltage      node    =voltage

 +0:b       =   1.0000  0:c       =   1.0000  0:cn1     = 5.387e-06
 +0:p10     =   1.0000  0:p11     = 1.077e-05 0:p9      = 1.077e-05
 +0:vdd     =   1.0000  1:cn1     = 5.386e-06 2:cn1     =   0.9440 


 maximum nodal capacitance=   4.439E-15         on node     0:vdd             

    nodal  capacitance table 

    node    =    cap      node    =    cap      node    =    cap

 +0:b       = 5.979e-16 0:c       = 2.269e-16 0:cn1     = 1.283e-16
 +0:p10     = 9.087e-16 0:p11     = 7.721e-16 0:p9      = 8.551e-16
 +0:vdd     = 4.439e-15 1:cn1     = 1.283e-16 2:cn1     = 6.526e-17

 
 ******  
 $ calculate delay of gate

  ******  transient analysis tnom=  25.000 temp=  25.000 *****

   *** data name = setsrce  1st sweep ***

x

        time    voltage    
                    cn1    
    0.          5.387e-06  
  5.0000e-13    5.387e-06  
  1.0000e-12    5.387e-06  
  1.5000e-12    5.387e-06  
  2.0000e-12    5.387e-06  
  2.5000e-12    5.387e-06  
  3.0000e-12    5.387e-06  
  3.5000e-12    5.387e-06  
  4.0000e-12    5.387e-06  
  4.5000e-12    5.387e-06  
  5.0000e-12    5.387e-06  
  5.5000e-12    5.387e-06  
  6.0000e-12    5.387e-06  
  6.5000e-12    5.387e-06  
  7.0000e-12    5.387e-06  
  7.5000e-12    5.387e-06  
  8.0000e-12    5.387e-06  
  8.5000e-12    5.387e-06  
  9.0000e-12    5.387e-06  
  9.5000e-12    5.387e-06  
  1.0000e-11    5.387e-06  
  1.0500e-11    5.387e-06  
  1.1000e-11    5.387e-06  
  1.1500e-11    5.387e-06  
  1.2000e-11    5.387e-06  
  1.2500e-11    5.387e-06  
  1.3000e-11    5.387e-06  
  1.3500e-11    5.387e-06  
  1.4000e-11    5.387e-06  
  1.4500e-11    5.387e-06  
  1.5000e-11    5.387e-06  
  1.5500e-11    5.387e-06  
  1.6000e-11    5.387e-06  
  1.6500e-11    5.387e-06  
  1.7000e-11    5.387e-06  
  1.7500e-11    5.387e-06  
  1.8000e-11    5.387e-06  
  1.8500e-11    5.387e-06  
  1.9000e-11    5.387e-06  
  1.9500e-11    5.387e-06  
  2.0000e-11    5.387e-06  
  2.0500e-11    5.387e-06  
  2.1000e-11    5.387e-06  
  2.1500e-11    5.387e-06  
  2.2000e-11    5.387e-06  
  2.2500e-11    5.387e-06  
  2.3000e-11    5.387e-06  
  2.3500e-11    5.387e-06  
  2.4000e-11    5.387e-06  
  2.4500e-11    5.387e-06  
  2.5000e-11    5.387e-06  
  2.5500e-11    5.387e-06  
  2.6000e-11    5.387e-06  
  2.6500e-11    5.387e-06  
  2.7000e-11    5.387e-06  
  2.7500e-11    5.387e-06  
  2.8000e-11    5.387e-06  
  2.8500e-11    5.387e-06  
  2.9000e-11    5.387e-06  
  2.9500e-11    5.387e-06  
  3.0000e-11    5.387e-06  
  3.0500e-11    5.387e-06  
  3.1000e-11    5.387e-06  
  3.1500e-11    5.387e-06  
  3.2000e-11    5.387e-06  
  3.2500e-11    5.387e-06  
  3.3000e-11    5.387e-06  
  3.3500e-11    5.387e-06  
  3.4000e-11    5.387e-06  
  3.4500e-11    5.387e-06  
  3.5000e-11    5.387e-06  
  3.5500e-11    5.387e-06  
  3.6000e-11    5.387e-06  
  3.6500e-11    5.387e-06  
  3.7000e-11    5.387e-06  
  3.7500e-11    5.387e-06  
  3.8000e-11    5.387e-06  
  3.8500e-11    5.387e-06  
  3.9000e-11    5.387e-06  
  3.9500e-11    5.387e-06  
  4.0000e-11    5.387e-06  
  4.0500e-11    5.387e-06  
  4.1000e-11    5.387e-06  
  4.1500e-11    5.387e-06  
  4.2000e-11    5.387e-06  
  4.2500e-11    5.387e-06  
  4.3000e-11    5.387e-06  
  4.3500e-11    5.387e-06  
  4.4000e-11    5.387e-06  
  4.4500e-11    5.387e-06  
  4.5000e-11    5.387e-06  
  4.5500e-11    5.387e-06  
  4.6000e-11    5.387e-06  
  4.6500e-11    5.387e-06  
  4.7000e-11    5.387e-06  
  4.7500e-11    5.387e-06  
  4.8000e-11    5.387e-06  
  4.8500e-11    5.387e-06  
  4.9000e-11    5.387e-06  
  4.9500e-11    5.387e-06  
  5.0000e-11    5.387e-06  
  5.0500e-11    5.387e-06  
  5.1000e-11    5.387e-06  
  5.1500e-11    5.387e-06  
  5.2000e-11    5.387e-06  
  5.2500e-11    5.387e-06  
  5.3000e-11    5.387e-06  
  5.3500e-11    5.387e-06  
  5.4000e-11    5.387e-06  
  5.4500e-11    5.387e-06  
  5.5000e-11    5.387e-06  
  5.5500e-11    5.387e-06  
  5.6000e-11    5.387e-06  
  5.6500e-11    5.387e-06  
  5.7000e-11    5.387e-06  
  5.7500e-11    5.387e-06  
  5.8000e-11    5.387e-06  
  5.8500e-11    5.387e-06  
  5.9000e-11    5.387e-06  
  5.9500e-11    5.387e-06  
  6.0000e-11    5.387e-06  
  6.0500e-11    5.387e-06  
  6.1000e-11    5.387e-06  
  6.1500e-11    5.387e-06  
  6.2000e-11    5.387e-06  
  6.2500e-11    5.387e-06  
  6.3000e-11    5.387e-06  
  6.3500e-11    5.387e-06  
  6.4000e-11    5.387e-06  
  6.4500e-11    5.387e-06  
  6.5000e-11    5.387e-06  
  6.5500e-11    5.387e-06  
  6.6000e-11    5.387e-06  
  6.6500e-11    5.387e-06  
  6.7000e-11    5.387e-06  
  6.7500e-11    5.387e-06  
  6.8000e-11    5.387e-06  
  6.8500e-11    5.387e-06  
  6.9000e-11    5.387e-06  
  6.9500e-11    5.387e-06  
  7.0000e-11    5.387e-06  
  7.0500e-11    5.387e-06  
  7.1000e-11    5.387e-06  
  7.1500e-11    5.387e-06  
  7.2000e-11    5.387e-06  
  7.2500e-11    5.387e-06  
  7.3000e-11    5.387e-06  
  7.3500e-11    5.387e-06  
  7.4000e-11    5.387e-06  
  7.4500e-11    5.387e-06  
  7.5000e-11    5.387e-06  
  7.5500e-11    5.387e-06  
  7.6000e-11    5.387e-06  
  7.6500e-11    5.387e-06  
  7.7000e-11    5.387e-06  
  7.7500e-11    5.387e-06  
  7.8000e-11    5.387e-06  
  7.8500e-11    5.387e-06  
  7.9000e-11    5.387e-06  
  7.9500e-11    5.387e-06  
  8.0000e-11    5.387e-06  
  8.0500e-11    5.387e-06  
  8.1000e-11    5.387e-06  
  8.1500e-11    5.387e-06  
  8.2000e-11    5.387e-06  
  8.2500e-11    5.387e-06  
  8.3000e-11    5.387e-06  
  8.3500e-11    5.387e-06  
  8.4000e-11    5.387e-06  
  8.4500e-11    5.387e-06  
  8.5000e-11    5.387e-06  
  8.5500e-11    5.387e-06  
  8.6000e-11    5.387e-06  
  8.6500e-11    5.387e-06  
  8.7000e-11    5.387e-06  
  8.7500e-11    5.387e-06  
  8.8000e-11    5.387e-06  
  8.8500e-11    5.387e-06  
  8.9000e-11    5.387e-06  
  8.9500e-11    5.387e-06  
  9.0000e-11    5.387e-06  
  9.0500e-11    5.387e-06  
  9.1000e-11    5.387e-06  
  9.1500e-11    5.387e-06  
  9.2000e-11    5.387e-06  
  9.2500e-11    5.387e-06  
  9.3000e-11    5.387e-06  
  9.3500e-11    5.387e-06  
  9.4000e-11    5.387e-06  
  9.4500e-11    5.387e-06  
  9.5000e-11    5.387e-06  
  9.5500e-11    5.387e-06  
  9.6000e-11    5.387e-06  
  9.6500e-11    5.387e-06  
  9.7000e-11    5.387e-06  
  9.7500e-11    5.387e-06  
  9.8000e-11    5.387e-06  
  9.8500e-11    5.387e-06  
  9.9000e-11    5.387e-06  
  9.9500e-11    5.387e-06  
  1.0000e-10    5.387e-06  
  1.0050e-10    5.387e-06  
  1.0100e-10    5.387e-06  
  1.0150e-10    5.387e-06  
  1.0200e-10    5.387e-06  
  1.0250e-10    5.387e-06  
  1.0300e-10    5.387e-06  
  1.0350e-10    5.387e-06  
  1.0400e-10    5.387e-06  
  1.0450e-10    5.387e-06  
  1.0500e-10    5.387e-06  
  1.0550e-10    5.387e-06  
  1.0600e-10    5.387e-06  
  1.0650e-10    5.387e-06  
  1.0700e-10    5.387e-06  
  1.0750e-10    5.387e-06  
  1.0800e-10    5.387e-06  
  1.0850e-10    5.387e-06  
  1.0900e-10    5.387e-06  
  1.0950e-10    5.387e-06  
  1.1000e-10    5.387e-06  
  1.1050e-10    5.387e-06  
  1.1100e-10    5.387e-06  
  1.1150e-10    5.387e-06  
  1.1200e-10    5.387e-06  
  1.1250e-10    5.387e-06  
  1.1300e-10    5.387e-06  
  1.1350e-10    5.387e-06  
  1.1400e-10    5.387e-06  
  1.1450e-10    5.387e-06  
  1.1500e-10    5.387e-06  
  1.1550e-10    5.387e-06  
  1.1600e-10    5.387e-06  
  1.1650e-10    5.387e-06  
  1.1700e-10    5.387e-06  
  1.1750e-10    5.387e-06  
  1.1800e-10    5.387e-06  
  1.1850e-10    5.387e-06  
  1.1900e-10    5.387e-06  
  1.1950e-10    5.387e-06  
  1.2000e-10    5.387e-06  
  1.2050e-10    5.387e-06  
  1.2100e-10    5.387e-06  
  1.2150e-10    5.387e-06  
  1.2200e-10    5.387e-06  
  1.2250e-10    5.387e-06  
  1.2300e-10    5.387e-06  
  1.2350e-10    5.387e-06  
  1.2400e-10    5.387e-06  
  1.2450e-10    5.387e-06  
  1.2500e-10    5.387e-06  
  1.2550e-10    5.387e-06  
  1.2600e-10    5.387e-06  
  1.2650e-10    5.387e-06  
  1.2700e-10    5.387e-06  
  1.2750e-10    5.387e-06  
  1.2800e-10    5.387e-06  
  1.2850e-10    5.387e-06  
  1.2900e-10    5.387e-06  
  1.2950e-10    5.387e-06  
  1.3000e-10    5.387e-06  
  1.3050e-10    5.387e-06  
  1.3100e-10    5.387e-06  
  1.3150e-10    5.387e-06  
  1.3200e-10    5.387e-06  
  1.3250e-10    5.387e-06  
  1.3300e-10    5.387e-06  
  1.3350e-10    5.387e-06  
  1.3400e-10    5.387e-06  
  1.3450e-10    5.387e-06  
  1.3500e-10    5.387e-06  
  1.3550e-10    5.387e-06  
  1.3600e-10    5.387e-06  
  1.3650e-10    5.387e-06  
  1.3700e-10    5.387e-06  
  1.3750e-10    5.387e-06  
  1.3800e-10    5.387e-06  
  1.3850e-10    5.387e-06  
  1.3900e-10    5.387e-06  
  1.3950e-10    5.387e-06  
  1.4000e-10    5.387e-06  
  1.4050e-10    5.387e-06  
  1.4100e-10    5.387e-06  
  1.4150e-10    5.387e-06  
  1.4200e-10    5.387e-06  
  1.4250e-10    5.387e-06  
  1.4300e-10    5.387e-06  
  1.4350e-10    5.387e-06  
  1.4400e-10    5.387e-06  
  1.4450e-10    5.387e-06  
  1.4500e-10    5.387e-06  
  1.4550e-10    5.387e-06  
  1.4600e-10    5.387e-06  
  1.4650e-10    5.387e-06  
  1.4700e-10    5.387e-06  
  1.4750e-10    5.387e-06  
  1.4800e-10    5.387e-06  
  1.4850e-10    5.387e-06  
  1.4900e-10    5.387e-06  
  1.4950e-10    5.387e-06  
  1.5000e-10    5.387e-06  
  1.5050e-10    5.387e-06  
  1.5100e-10    5.387e-06  
  1.5150e-10    5.387e-06  
  1.5200e-10    5.387e-06  
  1.5250e-10    5.387e-06  
  1.5300e-10    5.387e-06  
  1.5350e-10    5.387e-06  
  1.5400e-10    5.387e-06  
  1.5450e-10    5.387e-06  
  1.5500e-10    5.387e-06  
  1.5550e-10    5.387e-06  
  1.5600e-10    5.387e-06  
  1.5650e-10    5.387e-06  
  1.5700e-10    5.387e-06  
  1.5750e-10    5.387e-06  
  1.5800e-10    5.387e-06  
  1.5850e-10    5.387e-06  
  1.5900e-10    5.387e-06  
  1.5950e-10    5.387e-06  
  1.6000e-10    5.387e-06  
  1.6050e-10    5.387e-06  
  1.6100e-10    5.387e-06  
  1.6150e-10    5.387e-06  
  1.6200e-10    5.387e-06  
  1.6250e-10    5.387e-06  
  1.6300e-10    5.387e-06  
  1.6350e-10    5.387e-06  
  1.6400e-10    5.387e-06  
  1.6450e-10    5.387e-06  
  1.6500e-10    5.387e-06  
  1.6550e-10    5.387e-06  
  1.6600e-10    5.387e-06  
  1.6650e-10    5.387e-06  
  1.6700e-10    5.387e-06  
  1.6750e-10    5.387e-06  
  1.6800e-10    5.387e-06  
  1.6850e-10    5.387e-06  
  1.6900e-10    5.387e-06  
  1.6950e-10    5.387e-06  
  1.7000e-10    5.387e-06  
  1.7050e-10    5.387e-06  
  1.7100e-10    5.387e-06  
  1.7150e-10    5.387e-06  
  1.7200e-10    5.387e-06  
  1.7250e-10    5.387e-06  
  1.7300e-10    5.387e-06  
  1.7350e-10    5.387e-06  
  1.7400e-10    5.387e-06  
  1.7450e-10    5.387e-06  
  1.7500e-10    5.387e-06  
  1.7550e-10    5.387e-06  
  1.7600e-10    5.387e-06  
  1.7650e-10    5.387e-06  
  1.7700e-10    5.387e-06  
  1.7750e-10    5.387e-06  
  1.7800e-10    5.387e-06  
  1.7850e-10    5.387e-06  
  1.7900e-10    5.387e-06  
  1.7950e-10    5.387e-06  
  1.8000e-10    5.387e-06  
  1.8050e-10    5.387e-06  
  1.8100e-10    5.387e-06  
  1.8150e-10    5.387e-06  
  1.8200e-10    5.387e-06  
  1.8250e-10    5.387e-06  
  1.8300e-10    5.387e-06  
  1.8350e-10    5.387e-06  
  1.8400e-10    5.387e-06  
  1.8450e-10    5.387e-06  
  1.8500e-10    5.387e-06  
  1.8550e-10    5.387e-06  
  1.8600e-10    5.387e-06  
  1.8650e-10    5.387e-06  
  1.8700e-10    5.387e-06  
  1.8750e-10    5.387e-06  
  1.8800e-10    5.387e-06  
  1.8850e-10    5.387e-06  
  1.8900e-10    5.387e-06  
  1.8950e-10    5.387e-06  
  1.9000e-10    5.387e-06  
  1.9050e-10    5.387e-06  
  1.9100e-10    5.387e-06  
  1.9150e-10    5.387e-06  
  1.9200e-10    5.387e-06  
  1.9250e-10    5.387e-06  
  1.9300e-10    5.387e-06  
  1.9350e-10    5.387e-06  
  1.9400e-10    5.387e-06  
  1.9450e-10    5.387e-06  
  1.9500e-10    5.387e-06  
  1.9550e-10    5.387e-06  
  1.9600e-10    5.387e-06  
  1.9650e-10    5.387e-06  
  1.9700e-10    5.387e-06  
  1.9750e-10    5.387e-06  
  1.9800e-10    5.387e-06  
  1.9850e-10    5.387e-06  
  1.9900e-10    5.387e-06  
  1.9950e-10    5.387e-06  
  2.0000e-10    5.387e-06  
  2.0050e-10    5.387e-06  
  2.0100e-10    5.387e-06  
  2.0150e-10    5.387e-06  
  2.0200e-10    5.387e-06  
  2.0250e-10    5.387e-06  
  2.0300e-10    5.387e-06  
  2.0350e-10    5.387e-06  
  2.0400e-10    5.387e-06  
  2.0450e-10    5.387e-06  
  2.0500e-10    5.387e-06  
  2.0550e-10    5.387e-06  
  2.0600e-10    5.387e-06  
  2.0650e-10    5.387e-06  
  2.0700e-10    5.387e-06  
  2.0750e-10    5.387e-06  
  2.0800e-10    5.387e-06  
  2.0850e-10    5.387e-06  
  2.0900e-10    5.387e-06  
  2.0950e-10    5.387e-06  
  2.1000e-10    5.387e-06  
  2.1050e-10    5.387e-06  
  2.1100e-10    5.387e-06  
  2.1150e-10    5.387e-06  
  2.1200e-10    5.387e-06  
  2.1250e-10    5.387e-06  
  2.1300e-10    5.387e-06  
  2.1350e-10    5.387e-06  
  2.1400e-10    5.387e-06  
  2.1450e-10    5.387e-06  
  2.1500e-10    5.387e-06  
  2.1550e-10    5.387e-06  
  2.1600e-10    5.387e-06  
  2.1650e-10    5.387e-06  
  2.1700e-10    5.387e-06  
  2.1750e-10    5.387e-06  
  2.1800e-10    5.387e-06  
  2.1850e-10    5.387e-06  
  2.1900e-10    5.387e-06  
  2.1950e-10    5.387e-06  
  2.2000e-10    5.387e-06  
  2.2050e-10    5.387e-06  
  2.2100e-10    5.387e-06  
  2.2150e-10    5.387e-06  
  2.2200e-10    5.387e-06  
  2.2250e-10    5.387e-06  
  2.2300e-10    5.387e-06  
  2.2350e-10    5.387e-06  
  2.2400e-10    5.387e-06  
  2.2450e-10    5.387e-06  
  2.2500e-10    5.387e-06  
  2.2550e-10    5.387e-06  
  2.2600e-10    5.387e-06  
  2.2650e-10    5.387e-06  
  2.2700e-10    5.387e-06  
  2.2750e-10    5.387e-06  
  2.2800e-10    5.387e-06  
  2.2850e-10    5.387e-06  
  2.2900e-10    5.387e-06  
  2.2950e-10    5.387e-06  
  2.3000e-10    5.387e-06  
  2.3050e-10    5.387e-06  
  2.3100e-10    5.387e-06  
  2.3150e-10    5.387e-06  
  2.3200e-10    5.387e-06  
  2.3250e-10    5.387e-06  
  2.3300e-10    5.387e-06  
  2.3350e-10    5.387e-06  
  2.3400e-10    5.387e-06  
  2.3450e-10    5.387e-06  
  2.3500e-10    5.387e-06  
  2.3550e-10    5.387e-06  
  2.3600e-10    5.387e-06  
  2.3650e-10    5.387e-06  
  2.3700e-10    5.387e-06  
  2.3750e-10    5.387e-06  
  2.3800e-10    5.387e-06  
  2.3850e-10    5.387e-06  
  2.3900e-10    5.387e-06  
  2.3950e-10    5.387e-06  
  2.4000e-10    5.387e-06  
  2.4050e-10    5.387e-06  
  2.4100e-10    5.387e-06  
  2.4150e-10    5.387e-06  
  2.4200e-10    5.387e-06  
  2.4250e-10    5.387e-06  
  2.4300e-10    5.387e-06  
  2.4350e-10    5.387e-06  
  2.4400e-10    5.387e-06  
  2.4450e-10    5.387e-06  
  2.4500e-10    5.387e-06  
  2.4550e-10    5.387e-06  
  2.4600e-10    5.387e-06  
  2.4650e-10    5.387e-06  
  2.4700e-10    5.387e-06  
  2.4750e-10    5.387e-06  
  2.4800e-10    5.387e-06  
  2.4850e-10    5.387e-06  
  2.4900e-10    5.387e-06  
  2.4950e-10    5.387e-06  
  2.5050e-10    5.387e-06  
  2.5100e-10    7.833e-05  
  2.5150e-10    1.632e-04  
  2.5200e-10    2.270e-04  
  2.5250e-10    2.742e-04  
  2.5300e-10    3.076e-04  
  2.5350e-10    3.301e-04  
  2.5400e-10    3.441e-04  
  2.5450e-10    3.514e-04  
  2.5500e-10    3.533e-04  
  2.5550e-10    3.366e-04  
  2.5600e-10    3.262e-04  
  2.5650e-10    3.162e-04  
  2.5700e-10    3.054e-04  
  2.5750e-10    2.938e-04  
  2.5800e-10    2.818e-04  
  2.5850e-10    2.695e-04  
  2.5900e-10    2.573e-04  
  2.5950e-10    2.452e-04  
  2.6000e-10    2.335e-04  
  2.6050e-10    2.225e-04  
  2.6100e-10    2.124e-04  
  2.6150e-10    2.038e-04  
  2.6200e-10    1.884e-04  
  2.6250e-10    1.747e-04  
  2.6300e-10    1.670e-04  
  2.6350e-10    1.602e-04  
  2.6400e-10    1.536e-04  
  2.6450e-10    1.474e-04  
  2.6500e-10    1.416e-04  
  2.6550e-10    1.363e-04  
  2.6600e-10    1.317e-04  
  2.6650e-10    1.278e-04  
  2.6700e-10    1.246e-04  
  2.6750e-10    1.221e-04  
  2.6800e-10    1.204e-04  
  2.6850e-10    1.196e-04  
  2.6900e-10    1.196e-04  
  2.6950e-10    1.206e-04  
  2.7000e-10    1.225e-04  
  2.7050e-10    1.254e-04  
  2.7100e-10    1.293e-04  
  2.7150e-10    1.343e-04  
  2.7200e-10    1.405e-04  
  2.7250e-10    1.477e-04  
  2.7300e-10    1.560e-04  
  2.7350e-10    1.657e-04  
  2.7400e-10    1.777e-04  
  2.7450e-10    1.956e-04  
  2.7500e-10    1.926e-04  
  2.7550e-10    2.195e-04  
  2.7600e-10    2.475e-04  
  2.7650e-10    2.746e-04  
  2.7700e-10    3.087e-04  
  2.7750e-10    3.510e-04  
  2.7800e-10    4.031e-04  
  2.7850e-10    4.656e-04  
  2.7900e-10    5.380e-04  
  2.7950e-10    6.181e-04  
  2.8000e-10    7.025e-04  
  2.8050e-10    7.871e-04  
  2.8100e-10    8.668e-04  
  2.8150e-10    9.345e-04  
  2.8200e-10    9.797e-04  
  2.8250e-10    9.725e-04  
  2.8300e-10    8.518e-04  
  2.8350e-10    6.449e-04  
  2.8400e-10    3.265e-04  
  2.8450e-10    1.339e-05  
  2.8500e-10   -8.287e-03  
  2.8550e-10    2.344e-04  
  2.8600e-10    1.299e-04  
  2.8650e-10    6.313e-04  
  2.8700e-10   -1.319e-04  
  2.8750e-10    9.410e-05  
  2.8800e-10   -1.624e-03  
  2.8850e-10   -7.789e-05  
  2.8900e-10   -1.466e-03  
  2.8950e-10   -9.127e-03  
  2.9000e-10   -2.387e-03  
  2.9050e-10   -2.088e-03  
  2.9100e-10   -4.316e-03  
  2.9150e-10   -2.810e-03  
  2.9200e-10   -5.017e-03  
  2.9250e-10   -1.095e-02  
  2.9300e-10    2.026e-03  
  2.9350e-10   -1.261e-02  
  2.9400e-10   -6.301e-03  
  2.9450e-10   -5.704e-03  
  2.9500e-10   -8.054e-03  
  2.9550e-10   -7.401e-03  
  2.9600e-10   -8.906e-03  
  2.9650e-10   -7.893e-03  
  2.9700e-10   -3.417e-02  
  2.9750e-10   -1.308e-02  
  2.9800e-10   -2.023e-02  
  2.9850e-10    2.691e-02  
  2.9900e-10    1.933e-02  
  2.9950e-10    1.106e-02  
  3.0000e-10    2.984e-03  
  3.0050e-10   -4.128e-06  
  3.0100e-10    2.611e-03  
  3.0150e-10    3.321e-05  
  3.0200e-10    2.530e-04  
  3.0250e-10    1.906e-03  
  3.0300e-10    4.734e-03  
  3.0350e-10    8.808e-03  
  3.0400e-10    1.436e-02  
  3.0450e-10    2.176e-02  
  3.0500e-10    3.135e-02  
  3.0550e-10    4.302e-02  
  3.0600e-10    5.600e-02  
  3.0650e-10    6.989e-02  
  3.0700e-10    8.476e-02  
  3.0750e-10      0.1007   
  3.0800e-10      0.1176   
  3.0850e-10      0.1354   
  3.0900e-10      0.1540   
  3.0950e-10      0.1734   
  3.1000e-10      0.1934   
  3.1050e-10      0.2137   
  3.1100e-10      0.2344   
  3.1150e-10      0.2551   
  3.1200e-10      0.2758   
  3.1250e-10      0.2964   
  3.1300e-10      0.3166   
  3.1350e-10      0.3364   
  3.1400e-10      0.3555   
  3.1450e-10      0.3736   
  3.1500e-10      0.3904   
  3.1550e-10      0.4055   
  3.1600e-10      0.4193   
  3.1650e-10      0.4320   
  3.1700e-10      0.4436   
  3.1750e-10      0.4543   
  3.1800e-10      0.4643   
  3.1850e-10      0.4735   
  3.1900e-10      0.4821   
  3.1950e-10      0.4902   
  3.2000e-10      0.4978   
  3.2050e-10      0.5049   
  3.2100e-10      0.5116   
  3.2150e-10      0.5179   
  3.2200e-10      0.5239   
  3.2250e-10      0.5295   
  3.2300e-10      0.5349   
  3.2350e-10      0.5400   
  3.2400e-10      0.5448   
  3.2450e-10      0.5494   
  3.2500e-10      0.5537   
  3.2550e-10      0.5579   
  3.2600e-10      0.5619   
  3.2650e-10      0.5658   
  3.2700e-10      0.5694   
  3.2750e-10      0.5730   
  3.2800e-10      0.5764   
  3.2850e-10      0.5796   
  3.2900e-10      0.5828   
  3.2950e-10      0.5858   
  3.3000e-10      0.5887   
  3.3050e-10      0.5916   
  3.3100e-10      0.5943   
  3.3150e-10      0.5970   
  3.3200e-10      0.5996   
  3.3250e-10      0.6021   
  3.3300e-10      0.6045   
  3.3350e-10      0.6069   
  3.3400e-10      0.6092   
  3.3450e-10      0.6114   
  3.3500e-10      0.6136   
  3.3550e-10      0.6158   
  3.3600e-10      0.6178   
  3.3650e-10      0.6199   
  3.3700e-10      0.6218   
  3.3750e-10      0.6238   
  3.3800e-10      0.6257   
  3.3850e-10      0.6275   
  3.3900e-10      0.6293   
  3.3950e-10      0.6311   
  3.4000e-10      0.6328   
  3.4050e-10      0.6345   
  3.4100e-10      0.6362   
  3.4150e-10      0.6378   
  3.4200e-10      0.6394   
  3.4250e-10      0.6410   
  3.4300e-10      0.6425   
  3.4350e-10      0.6440   
  3.4400e-10      0.6455   
  3.4450e-10      0.6469   
  3.4500e-10      0.6484   
  3.4550e-10      0.6498   
  3.4600e-10      0.6512   
  3.4650e-10      0.6525   
  3.4700e-10      0.6538   
  3.4750e-10      0.6551   
  3.4800e-10      0.6564   
  3.4850e-10      0.6577   
  3.4900e-10      0.6589   
  3.4950e-10      0.6602   
  3.5000e-10      0.6614   
  3.5050e-10      0.6626   
  3.5100e-10      0.6637   
  3.5150e-10      0.6649   
  3.5200e-10      0.6660   
  3.5250e-10      0.6672   
  3.5300e-10      0.6683   
  3.5350e-10      0.6694   
  3.5400e-10      0.6704   
  3.5450e-10      0.6715   
  3.5500e-10      0.6725   
  3.5550e-10      0.6735   
  3.5600e-10      0.6746   
  3.5650e-10      0.6756   
  3.5700e-10      0.6766   
  3.5750e-10      0.6776   
  3.5800e-10      0.6785   
  3.5850e-10      0.6795   
  3.5900e-10      0.6805   
  3.5950e-10      0.6814   
  3.6000e-10      0.6823   
  3.6050e-10      0.6832   
  3.6100e-10      0.6841   
  3.6150e-10      0.6850   
  3.6200e-10      0.6858   
  3.6250e-10      0.6867   
  3.6300e-10      0.6876   
  3.6350e-10      0.6884   
  3.6400e-10      0.6893   
  3.6450e-10      0.6901   
  3.6500e-10      0.6909   
  3.6550e-10      0.6917   
  3.6600e-10      0.6926   
  3.6650e-10      0.6934   
  3.6700e-10      0.6942   
  3.6750e-10      0.6949   
  3.6800e-10      0.6957   
  3.6850e-10      0.6964   
  3.6900e-10      0.6972   
  3.6950e-10      0.6980   
  3.7000e-10      0.6986   
  3.7050e-10      0.6994   
  3.7100e-10      0.7001   
  3.7150e-10      0.7009   
  3.7200e-10      0.7015   
  3.7250e-10      0.7023   
  3.7300e-10      0.7030   
  3.7350e-10      0.7036   
  3.7400e-10      0.7043   
  3.7450e-10      0.7050   
  3.7500e-10      0.7057   
  3.7550e-10      0.7064   
  3.7600e-10      0.7070   
  3.7650e-10      0.7077   
  3.7700e-10      0.7083   
  3.7750e-10      0.7090   
  3.7800e-10      0.7095   
  3.7850e-10      0.7102   
  3.7900e-10      0.7109   
  3.7950e-10      0.7115   
  3.8000e-10      0.7120   
  3.8050e-10      0.7127   
  3.8100e-10      0.7133   
  3.8150e-10      0.7139   
  3.8200e-10      0.7145   
  3.8250e-10      0.7151   
  3.8300e-10      0.7156   
  3.8350e-10      0.7162   
  3.8400e-10      0.7168   
  3.8450e-10      0.7174   
  3.8500e-10      0.7179   
  3.8550e-10      0.7185   
  3.8600e-10      0.7190   
  3.8650e-10      0.7196   
  3.8700e-10      0.7201   
  3.8750e-10      0.7207   
  3.8800e-10      0.7212   
  3.8850e-10      0.7217   
  3.8900e-10      0.7223   
  3.8950e-10      0.7228   
  3.9000e-10      0.7233   
  3.9050e-10      0.7238   
  3.9100e-10      0.7244   
  3.9150e-10      0.7249   
  3.9200e-10      0.7254   
  3.9250e-10      0.7259   
  3.9300e-10      0.7264   
  3.9350e-10      0.7269   
  3.9400e-10      0.7274   
  3.9450e-10      0.7279   
  3.9500e-10      0.7284   
  3.9550e-10      0.7289   
  3.9600e-10      0.7293   
  3.9650e-10      0.7298   
  3.9700e-10      0.7303   
  3.9750e-10      0.7308   
  3.9800e-10      0.7312   
  3.9850e-10      0.7317   
  3.9900e-10      0.7322   
  3.9950e-10      0.7326   
  4.0000e-10      0.7331   
  4.0050e-10      0.7335   
  4.0100e-10      0.7340   
  4.0150e-10      0.7344   
  4.0200e-10      0.7349   
  4.0250e-10      0.7353   
  4.0300e-10      0.7358   
  4.0350e-10      0.7362   
  4.0400e-10      0.7366   
  4.0450e-10      0.7371   
  4.0500e-10      0.7375   
  4.0550e-10      0.7379   
  4.0600e-10      0.7383   
  4.0650e-10      0.7388   
  4.0700e-10      0.7392   
  4.0750e-10      0.7396   
  4.0800e-10      0.7400   
  4.0850e-10      0.7404   
  4.0900e-10      0.7408   
  4.0950e-10      0.7412   
  4.1000e-10      0.7416   
  4.1050e-10      0.7420   
  4.1100e-10      0.7424   
  4.1150e-10      0.7428   
  4.1200e-10      0.7432   
  4.1250e-10      0.7436   
  4.1300e-10      0.7440   
  4.1350e-10      0.7444   
  4.1400e-10      0.7448   
  4.1450e-10      0.7452   
  4.1500e-10      0.7456   
  4.1550e-10      0.7459   
  4.1600e-10      0.7463   
  4.1650e-10      0.7467   
  4.1700e-10      0.7471   
  4.1750e-10      0.7474   
  4.1800e-10      0.7478   
  4.1850e-10      0.7482   
  4.1900e-10      0.7485   
  4.1950e-10      0.7489   
  4.2000e-10      0.7493   
  4.2050e-10      0.7496   
  4.2100e-10      0.7500   
  4.2150e-10      0.7503   
  4.2200e-10      0.7507   
  4.2250e-10      0.7510   
  4.2300e-10      0.7514   
  4.2350e-10      0.7517   
  4.2400e-10      0.7521   
  4.2450e-10      0.7524   
  4.2500e-10      0.7528   
  4.2550e-10      0.7531   
  4.2600e-10      0.7534   
  4.2650e-10      0.7538   
  4.2700e-10      0.7541   
  4.2750e-10      0.7545   
  4.2800e-10      0.7548   
  4.2850e-10      0.7551   
  4.2900e-10      0.7554   
  4.2950e-10      0.7558   
  4.3000e-10      0.7561   
  4.3050e-10      0.7564   
  4.3100e-10      0.7567   
  4.3150e-10      0.7571   
  4.3200e-10      0.7574   
  4.3250e-10      0.7577   
  4.3300e-10      0.7580   
  4.3350e-10      0.7583   
  4.3400e-10      0.7586   
  4.3450e-10      0.7589   
  4.3500e-10      0.7593   
  4.3550e-10      0.7596   
  4.3600e-10      0.7599   
  4.3650e-10      0.7602   
  4.3700e-10      0.7605   
  4.3750e-10      0.7608   
  4.3800e-10      0.7611   
  4.3850e-10      0.7614   
  4.3900e-10      0.7618   
  4.3950e-10      0.7621   
  4.4000e-10      0.7622   
  4.4050e-10      0.7622   
  4.4100e-10      0.7628   
  4.4150e-10      0.7632   
  4.4200e-10      0.7635   
  4.4250e-10      0.7640   
  4.4300e-10      0.7644   
  4.4350e-10      0.7647   
  4.4400e-10      0.7653   
  4.4450e-10      0.7657   
  4.4500e-10      0.7663   
  4.4550e-10      0.7668   
  4.4600e-10      0.7672   
  4.4650e-10      0.7678   
  4.4700e-10      0.7683   
  4.4750e-10      0.7689   
  4.4800e-10      0.7694   
  4.4850e-10      0.7700   
  4.4900e-10      0.7706   
  4.4950e-10      0.7712   
  4.5000e-10      0.7719   
  4.5050e-10      0.7726   
  4.5100e-10      0.7733   
  4.5150e-10      0.7741   
  4.5200e-10      0.7749   
  4.5250e-10      0.7758   
  4.5300e-10      0.7767   
  4.5350e-10      0.7777   
  4.5400e-10      0.7788   
  4.5450e-10      0.7799   
  4.5500e-10      0.7811   
  4.5550e-10      0.7824   
  4.5600e-10      0.7838   
  4.5650e-10      0.7853   
  4.5700e-10      0.7869   
  4.5750e-10      0.7886   
  4.5800e-10      0.7905   
  4.5850e-10      0.7925   
  4.5900e-10      0.7947   
  4.5950e-10      0.7971   
  4.6000e-10      0.7997   
  4.6050e-10      0.8025   
  4.6100e-10      0.8056   
  4.6150e-10      0.8090   
  4.6200e-10      0.8127   
  4.6250e-10      0.8167   
  4.6300e-10      0.8212   
  4.6350e-10      0.8260   
  4.6400e-10      0.8311   
  4.6450e-10      0.8367   
  4.6500e-10      0.8426   
  4.6550e-10      0.8488   
  4.6600e-10      0.8553   
  4.6650e-10      0.8620   
  4.6700e-10      0.8688   
  4.6750e-10      0.8756   
  4.6800e-10      0.8823   
  4.6850e-10      0.8887   
  4.6900e-10      0.8947   
  4.6950e-10      0.9000   
  4.7000e-10      0.9042   
  4.7050e-10      0.9072   
  4.7100e-10      0.9085   
  4.7150e-10      0.9077   
  4.7200e-10      0.9043   
  4.7250e-10      0.8977   
  4.7300e-10      0.8875   
  4.7350e-10      0.8730   
  4.7400e-10      0.8538   
  4.7450e-10      0.8296   
  4.7500e-10      0.8001   
  4.7550e-10      0.7652   
  4.7600e-10      0.7246   
  4.7650e-10      0.6781   
  4.7700e-10      0.6257   
  4.7750e-10      0.5677   
  4.7800e-10      0.5063   
  4.7850e-10      0.4455   
  4.7900e-10      0.3912   
  4.7950e-10      0.3474   
  4.8000e-10      0.3144   
  4.8050e-10      0.2897   
  4.8100e-10      0.2706   
  4.8150e-10      0.2551   
  4.8200e-10      0.2422   
  4.8250e-10      0.2317   
  4.8300e-10      0.2230   
  4.8350e-10      0.2157   
  4.8400e-10      0.2096   
  4.8450e-10      0.2043   
  4.8500e-10      0.1996   
  4.8550e-10      0.1955   
  4.8600e-10      0.1918   
  4.8650e-10      0.1884   
  4.8700e-10      0.1852   
  4.8750e-10      0.1823   
  4.8800e-10      0.1796   
  4.8850e-10      0.1771   
  4.8900e-10      0.1747   
  4.8950e-10      0.1724   
  4.9000e-10      0.1701   
  4.9050e-10      0.1680   
  4.9100e-10      0.1659   
  4.9150e-10      0.1639   
  4.9200e-10      0.1619   
  4.9250e-10      0.1599   
  4.9300e-10      0.1579   
  4.9350e-10      0.1560   
  4.9400e-10      0.1541   
  4.9450e-10      0.1521   
  4.9500e-10      0.1502   
  4.9550e-10      0.1480   
  4.9600e-10      0.1456   
  4.9650e-10      0.1427   
  4.9700e-10      0.1392   
  4.9750e-10      0.1353   
  4.9800e-10      0.1309   
  4.9850e-10      0.1263   
  4.9900e-10      0.1214   
  4.9950e-10      0.1163   
  5.0000e-10      0.1112   
  5.0050e-10      0.1061   
  5.0100e-10      0.1009   
  5.0150e-10    9.585e-02  
  5.0200e-10    9.084e-02  
  5.0250e-10    8.594e-02  
  5.0300e-10    8.117e-02  
  5.0350e-10    7.655e-02  
  5.0400e-10    7.210e-02  
  5.0450e-10    6.782e-02  
  5.0500e-10    6.371e-02  
  5.0550e-10    5.980e-02  
  5.0600e-10    5.607e-02  
  5.0650e-10    5.253e-02  
  5.0700e-10    4.917e-02  
  5.0750e-10    4.599e-02  
  5.0800e-10    4.299e-02  
  5.0850e-10    4.016e-02  
  5.0900e-10    3.750e-02  
  5.0950e-10    3.499e-02  
  5.1000e-10    3.263e-02  
  5.1050e-10    3.042e-02  
  5.1100e-10    2.835e-02  
  5.1150e-10    2.641e-02  
  5.1200e-10    2.459e-02  
  5.1250e-10    2.290e-02  
  5.1300e-10    2.131e-02  
  5.1350e-10    1.982e-02  
  5.1400e-10    1.844e-02  
  5.1450e-10    1.715e-02  
  5.1500e-10    1.594e-02  
  5.1550e-10    1.482e-02  
  5.1600e-10    1.378e-02  
  5.1650e-10    1.280e-02  
  5.1700e-10    1.189e-02  
  5.1750e-10    1.105e-02  
  5.1800e-10    1.026e-02  
  5.1850e-10    9.533e-03  
  5.1900e-10    8.853e-03  
  5.1950e-10    8.221e-03  
  5.2000e-10    7.633e-03  
  5.2050e-10    7.087e-03  
  5.2100e-10    6.580e-03  
  5.2150e-10    6.108e-03  
  5.2200e-10    5.670e-03  
  5.2250e-10    5.263e-03  
  5.2300e-10    4.885e-03  
  5.2350e-10    4.534e-03  
  5.2400e-10    4.209e-03  
  5.2450e-10    3.906e-03  
  5.2500e-10    3.625e-03  
  5.2550e-10    3.365e-03  
  5.2600e-10    3.123e-03  
  5.2650e-10    2.898e-03  
  5.2700e-10    2.690e-03  
  5.2750e-10    2.496e-03  
  5.2800e-10    2.317e-03  
  5.2850e-10    2.150e-03  
  5.2900e-10    1.996e-03  
  5.2950e-10    1.852e-03  
  5.3000e-10    1.719e-03  
  5.3050e-10    1.596e-03  
  5.3100e-10    1.481e-03  
  5.3150e-10    1.375e-03  
  5.3200e-10    1.276e-03  
  5.3250e-10    1.185e-03  
  5.3300e-10    1.100e-03  
  5.3350e-10    1.021e-03  
  5.3400e-10    9.484e-04  
  5.3450e-10    8.807e-04  
  5.3500e-10    8.179e-04  
  5.3550e-10    7.596e-04  
  5.3600e-10    7.055e-04  
  5.3650e-10    6.554e-04  
  5.3700e-10    6.088e-04  
  5.3750e-10    5.657e-04  
  5.3800e-10    5.257e-04  
  5.3850e-10    4.885e-04  
  5.3900e-10    4.541e-04  
  5.3950e-10    4.221e-04  
  5.4000e-10    3.925e-04  
  5.4050e-10    3.650e-04  
  5.4100e-10    3.395e-04  
  5.4150e-10    3.158e-04  
  5.4200e-10    2.938e-04  
  5.4250e-10    2.735e-04  
  5.4300e-10    2.546e-04  
  5.4350e-10    2.370e-04  
  5.4400e-10    2.207e-04  
  5.4450e-10    2.057e-04  
  5.4500e-10    1.916e-04  
  5.4550e-10    1.786e-04  
  5.4600e-10    1.666e-04  
  5.4650e-10    1.554e-04  
  5.4700e-10    1.450e-04  
  5.4750e-10    1.354e-04  
  5.4800e-10    1.264e-04  
  5.4850e-10    1.181e-04  
  5.4900e-10    1.104e-04  
  5.4950e-10    1.033e-04  
  5.5000e-10    9.664e-05  
  5.5050e-10    9.047e-05  
  5.5100e-10    8.475e-05  
  5.5150e-10    7.944e-05  
  5.5200e-10    7.451e-05  
  5.5250e-10    6.994e-05  
  5.5300e-10    6.569e-05  
  5.5350e-10    6.174e-05  
  5.5400e-10    5.808e-05  
  5.5450e-10    5.468e-05  
  5.5500e-10    5.151e-05  
  5.5550e-10    4.858e-05  
  5.5600e-10    4.585e-05  
  5.5650e-10    4.331e-05  
  5.5700e-10    4.096e-05  
  5.5750e-10    3.877e-05  
  5.5800e-10    3.673e-05  
  5.5850e-10    3.484e-05  
  5.5900e-10    3.308e-05  
  5.5950e-10    3.145e-05  
  5.6000e-10    2.993e-05  
  5.6050e-10    2.851e-05  
  5.6100e-10    2.720e-05  
  5.6150e-10    2.597e-05  
  5.6200e-10    2.483e-05  
  5.6250e-10    2.377e-05  
  5.6300e-10    2.279e-05  
  5.6350e-10    2.187e-05  
  5.6400e-10    2.101e-05  
  5.6450e-10    2.021e-05  
  5.6500e-10    1.947e-05  
  5.6550e-10    1.878e-05  
  5.6600e-10    1.813e-05  
  5.6650e-10    1.753e-05  
  5.6700e-10    1.697e-05  
  5.6750e-10    1.645e-05  
  5.6800e-10    1.596e-05  
  5.6850e-10    1.550e-05  
  5.6900e-10    1.507e-05  
  5.6950e-10    1.468e-05  
  5.7000e-10    1.430e-05  
  5.7050e-10    1.395e-05  
  5.7100e-10    1.363e-05  
  5.7150e-10    1.332e-05  
  5.7200e-10    1.304e-05  
  5.7250e-10    1.277e-05  
  5.7300e-10    1.252e-05  
  5.7350e-10    1.228e-05  
  5.7400e-10    1.206e-05  
  5.7450e-10    1.185e-05  
  5.7500e-10    1.166e-05  
  5.7550e-10    1.147e-05  
  5.7600e-10    1.130e-05  
  5.7650e-10    1.114e-05  
  5.7700e-10    1.098e-05  
  5.7750e-10    1.084e-05  
  5.7800e-10    1.070e-05  
  5.7850e-10    1.057e-05  
  5.7900e-10    1.045e-05  
  5.7950e-10    1.034e-05  
  5.8000e-10    1.022e-05  
  5.8050e-10    1.012e-05  
  5.8100e-10    1.002e-05  
  5.8150e-10    9.927e-06  
  5.8200e-10    9.839e-06  
  5.8250e-10    9.756e-06  
  5.8300e-10    9.676e-06  
  5.8350e-10    9.600e-06  
  5.8400e-10    9.528e-06  
  5.8450e-10    9.459e-06  
  5.8500e-10    9.393e-06  
  5.8550e-10    9.330e-06  
  5.8600e-10    9.270e-06  
  5.8650e-10    9.212e-06  
  5.8700e-10    9.156e-06  
  5.8750e-10    9.103e-06  
  5.8800e-10    9.052e-06  
  5.8850e-10    9.003e-06  
  5.8900e-10    8.955e-06  
  5.8950e-10    8.910e-06  
  5.9000e-10    8.866e-06  
  5.9050e-10    8.823e-06  
  5.9100e-10    8.782e-06  
  5.9150e-10    8.742e-06  
  5.9200e-10    8.703e-06  
  5.9250e-10    8.666e-06  
  5.9300e-10    8.630e-06  
  5.9350e-10    8.595e-06  
  5.9400e-10    8.561e-06  
  5.9450e-10    8.527e-06  
  5.9500e-10    8.495e-06  
  5.9550e-10    8.464e-06  
  5.9600e-10    8.433e-06  
  5.9650e-10    8.403e-06  
  5.9700e-10    8.374e-06  
  5.9750e-10    8.345e-06  
  5.9800e-10    8.318e-06  
  5.9850e-10    8.290e-06  
  5.9900e-10    8.264e-06  
  5.9950e-10    8.238e-06  
  6.0000e-10    8.212e-06  
  6.0050e-10    8.187e-06  
  6.0100e-10    8.163e-06  
  6.0150e-10    8.139e-06  
  6.0200e-10    8.115e-06  
  6.0250e-10    8.092e-06  
  6.0300e-10    8.069e-06  
  6.0350e-10    8.047e-06  
  6.0400e-10    8.025e-06  
  6.0450e-10    8.004e-06  
  6.0500e-10    7.982e-06  
  6.0550e-10    7.961e-06  
  6.0600e-10    7.941e-06  
  6.0650e-10    7.921e-06  
  6.0700e-10    7.901e-06  
  6.0750e-10    7.881e-06  
  6.0800e-10    7.862e-06  
  6.0850e-10    7.843e-06  
  6.0900e-10    7.824e-06  
  6.0950e-10    7.805e-06  
  6.1000e-10    7.787e-06  
  6.1050e-10    7.769e-06  
  6.1100e-10    7.751e-06  
  6.1150e-10    7.734e-06  
  6.1200e-10    7.716e-06  
  6.1250e-10    7.699e-06  
  6.1300e-10    7.682e-06  
  6.1350e-10    7.666e-06  
  6.1400e-10    7.649e-06  
  6.1450e-10    7.633e-06  
  6.1500e-10    7.617e-06  
  6.1550e-10    7.601e-06  
  6.1600e-10    7.585e-06  
  6.1650e-10    7.569e-06  
  6.1700e-10    7.554e-06  
  6.1750e-10    7.539e-06  
  6.1800e-10    7.524e-06  
  6.1850e-10    7.509e-06  
  6.1900e-10    7.494e-06  
  6.1950e-10    7.480e-06  
  6.2000e-10    7.465e-06  
  6.2050e-10    7.451e-06  
  6.2100e-10    7.437e-06  
  6.2150e-10    7.423e-06  
  6.2200e-10    7.409e-06  
  6.2250e-10    7.395e-06  
  6.2300e-10    7.382e-06  
  6.2350e-10    7.369e-06  
  6.2400e-10    7.355e-06  
  6.2450e-10    7.342e-06  
  6.2500e-10    7.329e-06  
  6.2550e-10    7.316e-06  
  6.2600e-10    7.304e-06  
  6.2650e-10    7.291e-06  
  6.2700e-10    7.278e-06  
  6.2750e-10    7.266e-06  
  6.2800e-10    7.254e-06  
  6.2850e-10    7.241e-06  
  6.2900e-10    7.230e-06  
  6.2950e-10    7.218e-06  
  6.3000e-10    7.206e-06  
  6.3050e-10    7.194e-06  
  6.3100e-10    7.183e-06  
  6.3150e-10    7.171e-06  
  6.3200e-10    7.160e-06  
  6.3250e-10    7.149e-06  
  6.3300e-10    7.137e-06  
  6.3350e-10    7.126e-06  
  6.3400e-10    7.115e-06  
  6.3450e-10    7.104e-06  
  6.3500e-10    7.094e-06  
  6.3550e-10    7.083e-06  
  6.3600e-10    7.072e-06  
  6.3650e-10    7.062e-06  
  6.3700e-10    7.052e-06  
  6.3750e-10    7.041e-06  
  6.3800e-10    7.031e-06  
  6.3850e-10    7.021e-06  
  6.3900e-10    7.011e-06  
  6.3950e-10    7.001e-06  
  6.4000e-10    6.991e-06  
  6.4050e-10    6.981e-06  
  6.4100e-10    6.971e-06  
  6.4150e-10    6.962e-06  
  6.4200e-10    6.952e-06  
  6.4250e-10    6.943e-06  
  6.4300e-10    6.933e-06  
  6.4350e-10    6.924e-06  
  6.4400e-10    6.915e-06  
  6.4450e-10    6.906e-06  
  6.4500e-10    6.896e-06  
  6.4550e-10    6.887e-06  
  6.4600e-10    6.879e-06  
  6.4650e-10    6.870e-06  
  6.4700e-10    6.861e-06  
  6.4750e-10    6.852e-06  
  6.4800e-10    6.843e-06  
  6.4850e-10    6.835e-06  
  6.4900e-10    6.826e-06  
  6.4950e-10    6.818e-06  
  6.5000e-10    6.810e-06  
  6.5050e-10    6.801e-06  
  6.5100e-10    6.793e-06  
  6.5150e-10    6.785e-06  
  6.5200e-10    6.777e-06  
  6.5250e-10    6.768e-06  
  6.5300e-10    6.761e-06  
  6.5350e-10    6.753e-06  
  6.5400e-10    6.745e-06  
  6.5450e-10    6.737e-06  
  6.5500e-10    6.729e-06  
  6.5550e-10    6.722e-06  
  6.5600e-10    6.714e-06  
  6.5650e-10    6.706e-06  
  6.5700e-10    6.699e-06  
  6.5750e-10    6.691e-06  
  6.5800e-10    6.684e-06  
  6.5850e-10    6.677e-06  
  6.5900e-10    6.669e-06  
  6.5950e-10    6.662e-06  
  6.6000e-10    6.655e-06  
  6.6050e-10    6.648e-06  
  6.6100e-10    6.641e-06  
  6.6150e-10    6.634e-06  
  6.6200e-10    6.627e-06  
  6.6250e-10    6.620e-06  
  6.6300e-10    6.613e-06  
  6.6350e-10    6.606e-06  
  6.6400e-10    6.599e-06  
  6.6450e-10    6.593e-06  
  6.6500e-10    6.586e-06  
  6.6550e-10    6.579e-06  
  6.6600e-10    6.573e-06  
  6.6650e-10    6.566e-06  
  6.6700e-10    6.560e-06  
  6.6750e-10    6.553e-06  
  6.6800e-10    6.547e-06  
  6.6850e-10    6.541e-06  
  6.6900e-10    6.534e-06  
  6.6950e-10    6.528e-06  
  6.7000e-10    6.522e-06  
  6.7050e-10    6.516e-06  
  6.7100e-10    6.510e-06  
  6.7150e-10    6.504e-06  
  6.7200e-10    6.498e-06  
  6.7250e-10    6.492e-06  
  6.7300e-10    6.486e-06  
  6.7350e-10    6.480e-06  
  6.7400e-10    6.474e-06  
  6.7450e-10    6.468e-06  
  6.7500e-10    6.462e-06  
  6.7550e-10    6.457e-06  
  6.7600e-10    6.451e-06  
  6.7650e-10    6.445e-06  
  6.7700e-10    6.439e-06  
  6.7750e-10    6.434e-06  
  6.7800e-10    6.428e-06  
  6.7850e-10    6.423e-06  
  6.7900e-10    6.417e-06  
  6.7950e-10    6.412e-06  
  6.8000e-10    6.407e-06  
  6.8050e-10    6.401e-06  
  6.8100e-10    6.396e-06  
  6.8150e-10    6.391e-06  
  6.8200e-10    6.385e-06  
  6.8250e-10    6.380e-06  
  6.8300e-10    6.375e-06  
  6.8350e-10    6.370e-06  
  6.8400e-10    6.365e-06  
  6.8450e-10    6.359e-06  
  6.8500e-10    6.355e-06  
  6.8550e-10    6.349e-06  
  6.8600e-10    6.345e-06  
  6.8650e-10    6.340e-06  
  6.8700e-10    6.335e-06  
  6.8750e-10    6.330e-06  
  6.8800e-10    6.325e-06  
  6.8850e-10    6.320e-06  
  6.8900e-10    6.315e-06  
  6.8950e-10    6.311e-06  
  6.9000e-10    6.306e-06  
  6.9050e-10    6.301e-06  
  6.9100e-10    6.297e-06  
  6.9150e-10    6.292e-06  
  6.9200e-10    6.287e-06  
  6.9250e-10    6.283e-06  
  6.9300e-10    6.278e-06  
  6.9350e-10    6.274e-06  
  6.9400e-10    6.269e-06  
  6.9450e-10    6.265e-06  
  6.9500e-10    6.260e-06  
  6.9550e-10    6.256e-06  
  6.9600e-10    6.252e-06  
  6.9650e-10    6.247e-06  
  6.9700e-10    6.243e-06  
  6.9750e-10    6.239e-06  
  6.9800e-10    6.234e-06  
  6.9850e-10    6.230e-06  
  6.9900e-10    6.226e-06  
  6.9950e-10    6.222e-06  
  7.0000e-10    6.218e-06  
  7.0050e-10    6.213e-06  
  7.0100e-10    6.210e-06  
  7.0150e-10    6.205e-06  
  7.0200e-10    6.201e-06  
  7.0250e-10    6.197e-06  
  7.0300e-10    6.193e-06  
  7.0350e-10    6.189e-06  
  7.0400e-10    6.185e-06  
  7.0450e-10    6.181e-06  
  7.0500e-10    6.178e-06  
  7.0550e-10    6.174e-06  
  7.0600e-10    6.170e-06  
  7.0650e-10    6.166e-06  
  7.0700e-10    6.162e-06  
  7.0750e-10    6.158e-06  
  7.0800e-10    6.155e-06  
  7.0850e-10    6.151e-06  
  7.0900e-10    6.147e-06  
  7.0950e-10    6.144e-06  
  7.1000e-10    6.140e-06  
  7.1050e-10    6.136e-06  
  7.1100e-10    6.133e-06  
  7.1150e-10    6.129e-06  
  7.1200e-10    6.125e-06  
  7.1250e-10    6.122e-06  
  7.1300e-10    6.118e-06  
  7.1350e-10    6.115e-06  
  7.1400e-10    6.111e-06  
  7.1450e-10    6.108e-06  
  7.1500e-10    6.104e-06  
  7.1550e-10    6.101e-06  
  7.1600e-10    6.097e-06  
  7.1650e-10    6.094e-06  
  7.1700e-10    6.091e-06  
  7.1750e-10    6.087e-06  
  7.1800e-10    6.084e-06  
  7.1850e-10    6.081e-06  
  7.1900e-10    6.077e-06  
  7.1950e-10    6.074e-06  
  7.2000e-10    6.071e-06  
  7.2050e-10    6.068e-06  
  7.2100e-10    6.064e-06  
  7.2150e-10    6.061e-06  
  7.2200e-10    6.058e-06  
  7.2250e-10    6.055e-06  
  7.2300e-10    6.051e-06  
  7.2350e-10    6.048e-06  
  7.2400e-10    6.045e-06  
  7.2450e-10    6.042e-06  
  7.2500e-10    6.039e-06  
  7.2550e-10    6.036e-06  
  7.2600e-10    6.033e-06  
  7.2650e-10    6.030e-06  
  7.2700e-10    6.027e-06  
  7.2750e-10    6.024e-06  
  7.2800e-10    6.021e-06  
  7.2850e-10    6.018e-06  
  7.2900e-10    6.015e-06  
  7.2950e-10    6.012e-06  
  7.3000e-10    6.009e-06  
  7.3050e-10    6.007e-06  
  7.3100e-10    6.004e-06  
  7.3150e-10    6.001e-06  
  7.3200e-10    5.998e-06  
  7.3250e-10    5.995e-06  
  7.3300e-10    5.992e-06  
  7.3350e-10    5.989e-06  
  7.3400e-10    5.987e-06  
  7.3450e-10    5.984e-06  
  7.3500e-10    5.981e-06  
  7.3550e-10    5.979e-06  
  7.3600e-10    5.976e-06  
  7.3650e-10    5.973e-06  
  7.3700e-10    5.970e-06  
  7.3750e-10    5.968e-06  
  7.3800e-10    5.965e-06  
  7.3850e-10    5.962e-06  
  7.3900e-10    5.960e-06  
  7.3950e-10    5.957e-06  
  7.4000e-10    5.955e-06  
  7.4050e-10    5.952e-06  
  7.4100e-10    5.949e-06  
  7.4150e-10    5.947e-06  
  7.4200e-10    5.945e-06  
  7.4250e-10    5.942e-06  
  7.4300e-10    5.939e-06  
  7.4350e-10    5.937e-06  
  7.4400e-10    5.935e-06  
  7.4450e-10    5.932e-06  
  7.4500e-10    5.930e-06  
  7.4550e-10    5.927e-06  
  7.4600e-10    5.925e-06  
  7.4650e-10    5.922e-06  
  7.4700e-10    5.920e-06  
  7.4750e-10    5.918e-06  
  7.4800e-10    5.915e-06  
  7.4850e-10    5.913e-06  
  7.4900e-10    5.910e-06  
  7.4950e-10    5.908e-06  
  7.5000e-10    5.906e-06  
  7.5050e-10    5.903e-06  
  7.5100e-10    5.901e-06  
  7.5150e-10    5.899e-06  
  7.5200e-10    5.897e-06  
  7.5250e-10    5.894e-06  
  7.5300e-10    5.892e-06  
  7.5350e-10    5.890e-06  
  7.5400e-10    5.888e-06  
  7.5450e-10    5.886e-06  
  7.5500e-10    5.883e-06  
  7.5550e-10    5.881e-06  
  7.5600e-10    5.879e-06  
  7.5650e-10    5.877e-06  
  7.5700e-10    5.875e-06  
  7.5750e-10    5.872e-06  
  7.5800e-10    5.870e-06  
  7.5850e-10    5.868e-06  
  7.5900e-10    5.866e-06  
  7.5950e-10    5.864e-06  
  7.6000e-10    5.862e-06  
  7.6050e-10    5.860e-06  
  7.6100e-10    5.858e-06  
  7.6150e-10    5.856e-06  
  7.6200e-10    5.854e-06  
  7.6250e-10    5.852e-06  
  7.6300e-10    5.850e-06  
  7.6350e-10    5.848e-06  
  7.6400e-10    5.846e-06  
  7.6450e-10    5.844e-06  
  7.6500e-10    5.842e-06  
  7.6550e-10    5.840e-06  
  7.6600e-10    5.838e-06  
  7.6650e-10    5.836e-06  
  7.6700e-10    5.834e-06  
  7.6750e-10    5.832e-06  
  7.6800e-10    5.830e-06  
  7.6850e-10    5.828e-06  
  7.6900e-10    5.826e-06  
  7.6950e-10    5.824e-06  
  7.7000e-10    5.822e-06  
  7.7050e-10    5.821e-06  
  7.7100e-10    5.819e-06  
  7.7150e-10    5.817e-06  
  7.7200e-10    5.815e-06  
  7.7250e-10    5.813e-06  
  7.7300e-10    5.812e-06  
  7.7350e-10    5.810e-06  
  7.7400e-10    5.808e-06  
  7.7450e-10    5.806e-06  
  7.7500e-10    5.804e-06  
  7.7550e-10    5.802e-06  
  7.7600e-10    5.801e-06  
  7.7650e-10    5.799e-06  
  7.7700e-10    5.797e-06  
  7.7750e-10    5.795e-06  
  7.7800e-10    5.794e-06  
  7.7850e-10    5.792e-06  
  7.7900e-10    5.790e-06  
  7.7950e-10    5.789e-06  
  7.8000e-10    5.787e-06  
  7.8050e-10    5.785e-06  
  7.8100e-10    5.783e-06  
  7.8150e-10    5.782e-06  
  7.8200e-10    5.780e-06  
  7.8250e-10    5.779e-06  
  7.8300e-10    5.777e-06  
  7.8350e-10    5.775e-06  
  7.8400e-10    5.774e-06  
  7.8450e-10    5.772e-06  
  7.8500e-10    5.770e-06  
  7.8550e-10    5.769e-06  
  7.8600e-10    5.767e-06  
  7.8650e-10    5.766e-06  
  7.8700e-10    5.764e-06  
  7.8750e-10    5.763e-06  
  7.8800e-10    5.761e-06  
  7.8850e-10    5.759e-06  
  7.8900e-10    5.758e-06  
  7.8950e-10    5.756e-06  
  7.9000e-10    5.755e-06  
  7.9050e-10    5.753e-06  
  7.9100e-10    5.752e-06  
  7.9150e-10    5.750e-06  
  7.9200e-10    5.749e-06  
  7.9250e-10    5.747e-06  
  7.9300e-10    5.746e-06  
  7.9350e-10    5.744e-06  
  7.9400e-10    5.743e-06  
  7.9450e-10    5.741e-06  
  7.9500e-10    5.740e-06  
  7.9550e-10    5.738e-06  
  7.9600e-10    5.737e-06  
  7.9650e-10    5.736e-06  
  7.9700e-10    5.734e-06  
  7.9750e-10    5.733e-06  
  7.9800e-10    5.731e-06  
  7.9850e-10    5.730e-06  
  7.9900e-10    5.729e-06  
  7.9950e-10    5.727e-06  
  8.0000e-10    5.726e-06  
  8.0050e-10    5.724e-06  
  8.0100e-10    5.723e-06  
  8.0150e-10    5.722e-06  
  8.0200e-10    5.720e-06  
  8.0250e-10    5.719e-06  
  8.0300e-10    5.718e-06  
  8.0350e-10    5.716e-06  
  8.0400e-10    5.715e-06  
  8.0450e-10    5.714e-06  
  8.0500e-10    5.712e-06  
  8.0550e-10    5.711e-06  
  8.0600e-10    5.710e-06  
  8.0650e-10    5.708e-06  
  8.0700e-10    5.707e-06  
  8.0750e-10    5.706e-06  
  8.0800e-10    5.705e-06  
  8.0850e-10    5.703e-06  
  8.0900e-10    5.702e-06  
  8.0950e-10    5.701e-06  
  8.1000e-10    5.699e-06  
  8.1050e-10    5.698e-06  
  8.1100e-10    5.697e-06  
  8.1150e-10    5.696e-06  
  8.1200e-10    5.695e-06  
  8.1250e-10    5.693e-06  
  8.1300e-10    5.692e-06  
  8.1350e-10    5.691e-06  
  8.1400e-10    5.690e-06  
  8.1450e-10    5.688e-06  
  8.1500e-10    5.687e-06  
  8.1550e-10    5.686e-06  
  8.1600e-10    5.685e-06  
  8.1650e-10    5.684e-06  
  8.1700e-10    5.683e-06  
  8.1750e-10    5.681e-06  
  8.1800e-10    5.680e-06  
  8.1850e-10    5.679e-06  
  8.1900e-10    5.678e-06  
  8.1950e-10    5.677e-06  
  8.2000e-10    5.676e-06  
  8.2050e-10    5.674e-06  
  8.2100e-10    5.673e-06  
  8.2150e-10    5.672e-06  
  8.2200e-10    5.671e-06  
  8.2250e-10    5.670e-06  
  8.2300e-10    5.669e-06  
  8.2350e-10    5.668e-06  
  8.2400e-10    5.667e-06  
  8.2450e-10    5.666e-06  
  8.2500e-10    5.665e-06  
  8.2550e-10    5.663e-06  
  8.2600e-10    5.662e-06  
  8.2650e-10    5.661e-06  
  8.2700e-10    5.660e-06  
  8.2750e-10    5.659e-06  
  8.2800e-10    5.658e-06  
  8.2850e-10    5.657e-06  
  8.2900e-10    5.656e-06  
  8.2950e-10    5.655e-06  
  8.3000e-10    5.654e-06  
  8.3050e-10    5.653e-06  
  8.3100e-10    5.652e-06  
  8.3150e-10    5.651e-06  
  8.3200e-10    5.650e-06  
  8.3250e-10    5.649e-06  
  8.3300e-10    5.648e-06  
  8.3350e-10    5.647e-06  
  8.3400e-10    5.646e-06  
  8.3450e-10    5.645e-06  
  8.3500e-10    5.644e-06  
  8.3550e-10    5.643e-06  
  8.3600e-10    5.642e-06  
  8.3650e-10    5.641e-06  
  8.3700e-10    5.640e-06  
  8.3750e-10    5.639e-06  
  8.3800e-10    5.638e-06  
  8.3850e-10    5.637e-06  
  8.3900e-10    5.636e-06  
  8.3950e-10    5.635e-06  
  8.4000e-10    5.634e-06  
  8.4050e-10    5.633e-06  
  8.4100e-10    5.632e-06  
  8.4150e-10    5.631e-06  
  8.4200e-10    5.630e-06  
  8.4250e-10    5.630e-06  
  8.4300e-10    5.629e-06  
  8.4350e-10    5.628e-06  
  8.4400e-10    5.627e-06  
  8.4450e-10    5.626e-06  
  8.4500e-10    5.625e-06  
  8.4550e-10    5.624e-06  
  8.4600e-10    5.623e-06  
  8.4650e-10    5.622e-06  
  8.4700e-10    5.621e-06  
  8.4750e-10    5.621e-06  
  8.4800e-10    5.620e-06  
  8.4850e-10    5.619e-06  
  8.4900e-10    5.618e-06  
  8.4950e-10    5.617e-06  
  8.5000e-10    5.616e-06  
  8.5050e-10    5.615e-06  
  8.5100e-10    5.615e-06  
  8.5150e-10    5.614e-06  
  8.5200e-10    5.613e-06  
  8.5250e-10    5.612e-06  
  8.5300e-10    5.611e-06  
  8.5350e-10    5.611e-06  
  8.5400e-10    5.610e-06  
  8.5450e-10    5.609e-06  
  8.5500e-10    5.608e-06  
  8.5550e-10    5.607e-06  
  8.5600e-10    5.606e-06  
  8.5650e-10    5.605e-06  
  8.5700e-10    5.605e-06  
  8.5750e-10    5.604e-06  
  8.5800e-10    5.603e-06  
  8.5850e-10    5.602e-06  
  8.5900e-10    5.602e-06  
  8.5950e-10    5.601e-06  
  8.6000e-10    5.600e-06  
  8.6050e-10    5.599e-06  
  8.6100e-10    5.598e-06  
  8.6150e-10    5.598e-06  
  8.6200e-10    5.597e-06  
  8.6250e-10    5.596e-06  
  8.6300e-10    5.595e-06  
  8.6350e-10    5.595e-06  
  8.6400e-10    5.594e-06  
  8.6450e-10    5.593e-06  
  8.6500e-10    5.592e-06  
  8.6550e-10    5.591e-06  
  8.6600e-10    5.591e-06  
  8.6650e-10    5.590e-06  
  8.6700e-10    5.589e-06  
  8.6750e-10    5.589e-06  
  8.6800e-10    5.588e-06  
  8.6850e-10    5.587e-06  
  8.6900e-10    5.586e-06  
  8.6950e-10    5.586e-06  
  8.7000e-10    5.585e-06  
  8.7050e-10    5.584e-06  
  8.7100e-10    5.584e-06  
  8.7150e-10    5.583e-06  
  8.7200e-10    5.582e-06  
  8.7250e-10    5.581e-06  
  8.7300e-10    5.581e-06  
  8.7350e-10    5.580e-06  
  8.7400e-10    5.579e-06  
  8.7450e-10    5.579e-06  
  8.7500e-10    5.578e-06  
  8.7550e-10    5.577e-06  
  8.7600e-10    5.577e-06  
  8.7650e-10    5.576e-06  
  8.7700e-10    5.575e-06  
  8.7750e-10    5.574e-06  
  8.7800e-10    5.574e-06  
  8.7850e-10    5.573e-06  
  8.7900e-10    5.572e-06  
  8.7950e-10    5.572e-06  
  8.8000e-10    5.572e-06  
  8.8050e-10    5.571e-06  
  8.8100e-10    5.570e-06  
  8.8150e-10    5.569e-06  
  8.8200e-10    5.569e-06  
  8.8250e-10    5.568e-06  
  8.8300e-10    5.568e-06  
  8.8350e-10    5.567e-06  
  8.8400e-10    5.566e-06  
  8.8450e-10    5.566e-06  
  8.8500e-10    5.565e-06  
  8.8550e-10    5.564e-06  
  8.8600e-10    5.564e-06  
  8.8650e-10    5.563e-06  
  8.8700e-10    5.562e-06  
  8.8750e-10    5.562e-06  
  8.8800e-10    5.561e-06  
  8.8850e-10    5.561e-06  
  8.8900e-10    5.560e-06  
  8.8950e-10    5.559e-06  
  8.9000e-10    5.559e-06  
  8.9050e-10    5.558e-06  
  8.9100e-10    5.557e-06  
  8.9150e-10    5.557e-06  
  8.9200e-10    5.556e-06  
  8.9250e-10    5.556e-06  
  8.9300e-10    5.555e-06  
  8.9350e-10    5.555e-06  
  8.9400e-10    5.554e-06  
  8.9450e-10    5.553e-06  
  8.9500e-10    5.553e-06  
  8.9550e-10    5.552e-06  
  8.9600e-10    5.552e-06  
  8.9650e-10    5.551e-06  
  8.9700e-10    5.551e-06  
  8.9750e-10    5.550e-06  
  8.9800e-10    5.550e-06  
  8.9850e-10    5.549e-06  
  8.9900e-10    5.548e-06  
  8.9950e-10    5.548e-06  
  9.0000e-10    5.547e-06  
  9.0050e-10    5.547e-06  
  9.0100e-10    5.546e-06  
  9.0150e-10    5.546e-06  
  9.0200e-10    5.545e-06  
  9.0250e-10    5.545e-06  
  9.0300e-10    5.544e-06  
  9.0350e-10    5.543e-06  
  9.0400e-10    5.543e-06  
  9.0450e-10    5.542e-06  
  9.0500e-10    5.542e-06  
  9.0550e-10    5.541e-06  
  9.0600e-10    5.541e-06  
  9.0650e-10    5.540e-06  
  9.0700e-10    5.540e-06  
  9.0750e-10    5.539e-06  
  9.0800e-10    5.539e-06  
  9.0850e-10    5.538e-06  
  9.0900e-10    5.538e-06  
  9.0950e-10    5.537e-06  
  9.1000e-10    5.537e-06  
  9.1050e-10    5.536e-06  
  9.1100e-10    5.536e-06  
  9.1150e-10    5.535e-06  
  9.1200e-10    5.535e-06  
  9.1250e-10    5.534e-06  
  9.1300e-10    5.534e-06  
  9.1350e-10    5.533e-06  
  9.1400e-10    5.533e-06  
  9.1450e-10    5.532e-06  
  9.1500e-10    5.532e-06  
  9.1550e-10    5.531e-06  
  9.1600e-10    5.531e-06  
  9.1650e-10    5.531e-06  
  9.1700e-10    5.530e-06  
  9.1750e-10    5.530e-06  
  9.1800e-10    5.529e-06  
  9.1850e-10    5.528e-06  
  9.1900e-10    5.528e-06  
  9.1950e-10    5.528e-06  
  9.2000e-10    5.527e-06  
  9.2050e-10    5.527e-06  
  9.2100e-10    5.526e-06  
  9.2150e-10    5.526e-06  
  9.2200e-10    5.525e-06  
  9.2250e-10    5.525e-06  
  9.2300e-10    5.524e-06  
  9.2350e-10    5.524e-06  
  9.2400e-10    5.523e-06  
  9.2450e-10    5.523e-06  
  9.2500e-10    5.523e-06  
  9.2550e-10    5.522e-06  
  9.2600e-10    5.522e-06  
  9.2650e-10    5.521e-06  
  9.2700e-10    5.521e-06  
  9.2750e-10    5.520e-06  
  9.2800e-10    5.520e-06  
  9.2850e-10    5.520e-06  
  9.2900e-10    5.519e-06  
  9.2950e-10    5.519e-06  
  9.3000e-10    5.518e-06  
  9.3050e-10    5.518e-06  
  9.3100e-10    5.517e-06  
  9.3150e-10    5.517e-06  
  9.3200e-10    5.517e-06  
  9.3250e-10    5.516e-06  
  9.3300e-10    5.516e-06  
  9.3350e-10    5.515e-06  
  9.3400e-10    5.515e-06  
  9.3450e-10    5.514e-06  
  9.3500e-10    5.514e-06  
  9.3550e-10    5.514e-06  
  9.3600e-10    5.513e-06  
  9.3650e-10    5.513e-06  
  9.3700e-10    5.513e-06  
  9.3750e-10    5.512e-06  
  9.3800e-10    5.512e-06  
  9.3850e-10    5.511e-06  
  9.3900e-10    5.511e-06  
  9.3950e-10    5.510e-06  
  9.4000e-10    5.510e-06  
  9.4050e-10    5.510e-06  
  9.4100e-10    5.509e-06  
  9.4150e-10    5.509e-06  
  9.4200e-10    5.509e-06  
  9.4250e-10    5.508e-06  
  9.4300e-10    5.508e-06  
  9.4350e-10    5.507e-06  
  9.4400e-10    5.507e-06  
  9.4450e-10    5.507e-06  
  9.4500e-10    5.506e-06  
  9.4550e-10    5.506e-06  
  9.4600e-10    5.506e-06  
  9.4650e-10    5.505e-06  
  9.4700e-10    5.505e-06  
  9.4750e-10    5.504e-06  
  9.4800e-10    5.504e-06  
  9.4850e-10    5.504e-06  
  9.4900e-10    5.503e-06  
  9.4950e-10    5.503e-06  
  9.5000e-10    5.503e-06  
  9.5050e-10    5.502e-06  
  9.5100e-10    5.502e-06  
  9.5150e-10    5.501e-06  
  9.5200e-10    5.501e-06  
  9.5250e-10    5.501e-06  
  9.5300e-10    5.500e-06  
  9.5350e-10    5.500e-06  
  9.5400e-10    5.500e-06  
  9.5450e-10    5.499e-06  
  9.5500e-10    5.499e-06  
  9.5550e-10    5.499e-06  
  9.5600e-10    5.498e-06  
  9.5650e-10    5.498e-06  
  9.5700e-10    5.498e-06  
  9.5750e-10    5.497e-06  
  9.5800e-10    5.497e-06  
  9.5850e-10    5.497e-06  
  9.5900e-10    5.496e-06  
  9.5950e-10    5.496e-06  
  9.6000e-10    5.496e-06  
  9.6050e-10    5.495e-06  
  9.6100e-10    5.495e-06  
  9.6150e-10    5.495e-06  
  9.6200e-10    5.494e-06  
  9.6250e-10    5.494e-06  
  9.6300e-10    5.494e-06  
  9.6350e-10    5.493e-06  
  9.6400e-10    5.493e-06  
  9.6450e-10    5.493e-06  
  9.6500e-10    5.492e-06  
  9.6550e-10    5.492e-06  
  9.6600e-10    5.492e-06  
  9.6650e-10    5.491e-06  
  9.6700e-10    5.491e-06  
  9.6750e-10    5.491e-06  
  9.6800e-10    5.490e-06  
  9.6850e-10    5.490e-06  
  9.6900e-10    5.490e-06  
  9.6950e-10    5.490e-06  
  9.7000e-10    5.489e-06  
  9.7050e-10    5.489e-06  
  9.7100e-10    5.489e-06  
  9.7150e-10    5.488e-06  
  9.7200e-10    5.488e-06  
  9.7250e-10    5.488e-06  
  9.7300e-10    5.487e-06  
  9.7350e-10    5.487e-06  
  9.7400e-10    5.487e-06  
  9.7450e-10    5.487e-06  
  9.7500e-10    5.486e-06  
  9.7550e-10    5.486e-06  
  9.7600e-10    5.486e-06  
  9.7650e-10    5.485e-06  
  9.7700e-10    5.485e-06  
  9.7750e-10    5.485e-06  
  9.7800e-10    5.484e-06  
  9.7850e-10    5.484e-06  
  9.7900e-10    5.484e-06  
  9.7950e-10    5.484e-06  
  9.8000e-10    5.483e-06  
  9.8050e-10    5.483e-06  
  9.8100e-10    5.483e-06  
  9.8150e-10    5.483e-06  
  9.8200e-10    5.482e-06  
  9.8250e-10    5.482e-06  
  9.8300e-10    5.482e-06  
  9.8350e-10    5.481e-06  
  9.8400e-10    5.481e-06  
  9.8450e-10    5.481e-06  
  9.8500e-10    5.481e-06  
  9.8550e-10    5.480e-06  
  9.8600e-10    5.480e-06  
  9.8650e-10    5.480e-06  
  9.8700e-10    5.479e-06  
  9.8750e-10    5.479e-06  
  9.8800e-10    5.479e-06  
  9.8850e-10    5.479e-06  
  9.8900e-10    5.478e-06  
  9.8950e-10    5.478e-06  
  9.9000e-10    5.478e-06  
  9.9050e-10    5.478e-06  
  9.9100e-10    5.477e-06  
  9.9150e-10    5.477e-06  
  9.9200e-10    5.477e-06  
  9.9250e-10    5.477e-06  
  9.9300e-10    5.476e-06  
  9.9350e-10    5.476e-06  
  9.9400e-10    5.476e-06  
  9.9450e-10    5.476e-06  
  9.9500e-10    5.475e-06  
  9.9550e-10    5.475e-06  
  9.9600e-10    5.475e-06  
  9.9650e-10    5.475e-06  
  9.9700e-10    5.474e-06  
  9.9750e-10    5.474e-06  
  9.9800e-10    5.474e-06  
  9.9850e-10    5.474e-06  
  9.9900e-10    5.473e-06  
  9.9950e-10    5.473e-06  
  1.0000e-09    5.473e-06  
  1.0005e-09    5.473e-06  
  1.0010e-09    5.472e-06  
  1.0015e-09    5.472e-06  
  1.0020e-09    5.472e-06  
  1.0025e-09    5.472e-06  
  1.0030e-09    5.471e-06  
  1.0035e-09    5.471e-06  
  1.0040e-09    5.471e-06  
  1.0045e-09    5.471e-06  
  1.0050e-09    5.470e-06  
  1.0055e-09    5.470e-06  
  1.0060e-09    5.470e-06  
  1.0065e-09    5.470e-06  
  1.0070e-09    5.469e-06  
  1.0075e-09    5.469e-06  
  1.0080e-09    5.469e-06  
  1.0085e-09    5.469e-06  
  1.0090e-09    5.469e-06  
  1.0095e-09    5.468e-06  
  1.0100e-09    5.468e-06  
  1.0105e-09    5.468e-06  
  1.0110e-09    5.468e-06  
  1.0115e-09    5.468e-06  
  1.0120e-09    5.467e-06  
  1.0125e-09    5.467e-06  
  1.0130e-09    5.467e-06  
  1.0135e-09    5.467e-06  
  1.0140e-09    5.466e-06  
  1.0145e-09    5.466e-06  
  1.0150e-09    5.466e-06  
  1.0155e-09    5.466e-06  
  1.0160e-09    5.465e-06  
  1.0165e-09    5.465e-06  
  1.0170e-09    5.465e-06  
  1.0175e-09    5.465e-06  
  1.0180e-09    5.465e-06  
  1.0185e-09    5.464e-06  
  1.0190e-09    5.464e-06  
  1.0195e-09    5.464e-06  
  1.0200e-09    5.464e-06  
  1.0205e-09    5.464e-06  
  1.0210e-09    5.463e-06  
  1.0215e-09    5.463e-06  
  1.0220e-09    5.463e-06  
  1.0225e-09    5.463e-06  
  1.0230e-09    5.463e-06  
  1.0235e-09    5.462e-06  
  1.0240e-09    5.462e-06  
  1.0245e-09    5.462e-06  
  1.0250e-09    5.462e-06  
  1.0255e-09    5.462e-06  
  1.0260e-09    5.461e-06  
  1.0265e-09    5.461e-06  
  1.0270e-09    5.461e-06  
  1.0275e-09    5.461e-06  
  1.0280e-09    5.461e-06  
  1.0285e-09    5.460e-06  
  1.0290e-09    5.460e-06  
  1.0295e-09    5.460e-06  
  1.0300e-09    5.460e-06  
  1.0305e-09    5.460e-06  
  1.0310e-09    5.459e-06  
  1.0315e-09    5.459e-06  
  1.0320e-09    5.459e-06  
  1.0325e-09    5.459e-06  
  1.0330e-09    5.459e-06  
  1.0335e-09    5.459e-06  
  1.0340e-09    5.458e-06  
  1.0345e-09    5.458e-06  
  1.0350e-09    5.458e-06  
  1.0355e-09    5.458e-06  
  1.0360e-09    5.458e-06  
  1.0365e-09    5.457e-06  
  1.0370e-09    5.457e-06  
  1.0375e-09    5.457e-06  
  1.0380e-09    5.457e-06  
  1.0385e-09    5.457e-06  
  1.0390e-09    5.456e-06  
  1.0395e-09    5.456e-06  
  1.0400e-09    5.456e-06  
  1.0405e-09    5.456e-06  
  1.0410e-09    5.456e-06  
  1.0415e-09    5.456e-06  
  1.0420e-09    5.455e-06  
  1.0425e-09    5.455e-06  
  1.0430e-09    5.455e-06  
  1.0435e-09    5.455e-06  
  1.0440e-09    5.455e-06  
  1.0445e-09    5.455e-06  
  1.0450e-09    5.454e-06  
  1.0455e-09    5.454e-06  
  1.0460e-09    5.454e-06  
  1.0465e-09    5.454e-06  
  1.0470e-09    5.454e-06  
  1.0475e-09    5.453e-06  
  1.0480e-09    5.453e-06  
  1.0485e-09    5.453e-06  
  1.0490e-09    5.453e-06  
  1.0495e-09    5.453e-06  
  1.0500e-09    5.453e-06  
  1.0505e-09    5.452e-06  
  1.0510e-09    5.452e-06  
  1.0515e-09    5.452e-06  
  1.0520e-09    5.452e-06  
  1.0525e-09    5.452e-06  
  1.0530e-09    5.452e-06  
  1.0535e-09    5.451e-06  
  1.0540e-09    5.451e-06  
  1.0545e-09    5.451e-06  
  1.0550e-09    5.451e-06  
  1.0555e-09    5.451e-06  
  1.0560e-09    5.451e-06  
  1.0565e-09    5.451e-06  
  1.0570e-09    5.450e-06  
  1.0575e-09    5.450e-06  
  1.0580e-09    5.450e-06  
  1.0585e-09    5.450e-06  
  1.0590e-09    5.450e-06  
  1.0595e-09    5.450e-06  
  1.0600e-09    5.449e-06  
  1.0605e-09    5.449e-06  
  1.0610e-09    5.449e-06  
  1.0615e-09    5.449e-06  
  1.0620e-09    5.449e-06  
  1.0625e-09    5.449e-06  
  1.0630e-09    5.448e-06  
  1.0635e-09    5.448e-06  
  1.0640e-09    5.448e-06  
  1.0645e-09    5.448e-06  
  1.0650e-09    5.448e-06  
  1.0655e-09    5.448e-06  
  1.0660e-09    5.448e-06  
  1.0665e-09    5.447e-06  
  1.0670e-09    5.447e-06  
  1.0675e-09    5.447e-06  
  1.0680e-09    5.447e-06  
  1.0685e-09    5.447e-06  
  1.0690e-09    5.447e-06  
  1.0695e-09    5.447e-06  
  1.0700e-09    5.446e-06  
  1.0705e-09    5.446e-06  
  1.0710e-09    5.446e-06  
  1.0715e-09    5.446e-06  
  1.0720e-09    5.446e-06  
  1.0725e-09    5.446e-06  
  1.0730e-09    5.446e-06  
  1.0735e-09    5.445e-06  
  1.0740e-09    5.445e-06  
  1.0745e-09    5.445e-06  
  1.0750e-09    5.445e-06  
  1.0755e-09    5.445e-06  
  1.0760e-09    5.445e-06  
  1.0765e-09    5.445e-06  
  1.0770e-09    5.444e-06  
  1.0775e-09    5.444e-06  
  1.0780e-09    5.444e-06  
  1.0785e-09    5.444e-06  
  1.0790e-09    5.444e-06  
  1.0795e-09    5.444e-06  
  1.0800e-09    5.444e-06  
  1.0805e-09    5.443e-06  
  1.0810e-09    5.443e-06  
  1.0815e-09    5.443e-06  
  1.0820e-09    5.443e-06  
  1.0825e-09    5.443e-06  
  1.0830e-09    5.443e-06  
  1.0835e-09    5.443e-06  
  1.0840e-09    5.443e-06  
  1.0845e-09    5.442e-06  
  1.0850e-09    5.442e-06  
  1.0855e-09    5.442e-06  
  1.0860e-09    5.442e-06  
  1.0865e-09    5.442e-06  
  1.0870e-09    5.442e-06  
  1.0875e-09    5.442e-06  
  1.0880e-09    5.441e-06  
  1.0885e-09    5.441e-06  
  1.0890e-09    5.441e-06  
  1.0895e-09    5.441e-06  
  1.0900e-09    5.441e-06  
  1.0905e-09    5.441e-06  
  1.0910e-09    5.441e-06  
  1.0915e-09    5.441e-06  
  1.0920e-09    5.440e-06  
  1.0925e-09    5.440e-06  
  1.0930e-09    5.440e-06  
  1.0935e-09    5.440e-06  
  1.0940e-09    5.440e-06  
  1.0945e-09    5.440e-06  
  1.0950e-09    5.440e-06  
  1.0955e-09    5.440e-06  
  1.0960e-09    5.439e-06  
  1.0965e-09    5.439e-06  
  1.0970e-09    5.439e-06  
  1.0975e-09    5.439e-06  
  1.0980e-09    5.439e-06  
  1.0985e-09    5.439e-06  
  1.0990e-09    5.439e-06  
  1.0995e-09    5.439e-06  
  1.1000e-09    5.438e-06  
  1.1005e-09    5.438e-06  
  1.1010e-09    5.438e-06  
  1.1015e-09    5.438e-06  
  1.1020e-09    5.438e-06  
  1.1025e-09    5.438e-06  
  1.1030e-09    5.438e-06  
  1.1035e-09    5.438e-06  
  1.1040e-09    5.438e-06  
  1.1045e-09    5.437e-06  
  1.1050e-09    5.437e-06  
  1.1055e-09    5.437e-06  
  1.1060e-09    5.437e-06  
  1.1065e-09    5.437e-06  
  1.1070e-09    5.437e-06  
  1.1075e-09    5.437e-06  
  1.1080e-09    5.437e-06  
  1.1085e-09    5.437e-06  
  1.1090e-09    5.436e-06  
  1.1095e-09    5.436e-06  
  1.1100e-09    5.436e-06  
  1.1105e-09    5.436e-06  
  1.1110e-09    5.436e-06  
  1.1115e-09    5.436e-06  
  1.1120e-09    5.436e-06  
  1.1125e-09    5.436e-06  
  1.1130e-09    5.436e-06  
  1.1135e-09    5.435e-06  
  1.1140e-09    5.435e-06  
  1.1145e-09    5.435e-06  
  1.1150e-09    5.435e-06  
  1.1155e-09    5.435e-06  
  1.1160e-09    5.435e-06  
  1.1165e-09    5.435e-06  
  1.1170e-09    5.435e-06  
  1.1175e-09    5.435e-06  
  1.1180e-09    5.434e-06  
  1.1185e-09    5.434e-06  
  1.1190e-09    5.434e-06  
  1.1195e-09    5.434e-06  
  1.1200e-09    5.434e-06  
  1.1205e-09    5.434e-06  
  1.1210e-09    5.434e-06  
  1.1215e-09    5.434e-06  
  1.1220e-09    5.434e-06  
  1.1225e-09    5.434e-06  
  1.1230e-09    5.433e-06  
  1.1235e-09    5.433e-06  
  1.1240e-09    5.433e-06  
  1.1245e-09    5.433e-06  
  1.1250e-09    5.433e-06  
  1.1255e-09    5.433e-06  
  1.1260e-09    5.433e-06  
  1.1265e-09    5.433e-06  
  1.1270e-09    5.433e-06  
  1.1275e-09    5.433e-06  
  1.1280e-09    5.432e-06  
  1.1285e-09    5.432e-06  
  1.1290e-09    5.432e-06  
  1.1295e-09    5.432e-06  
  1.1300e-09    5.432e-06  
  1.1305e-09    5.432e-06  
  1.1310e-09    5.432e-06  
  1.1315e-09    5.432e-06  
  1.1320e-09    5.432e-06  
  1.1325e-09    5.432e-06  
  1.1330e-09    5.432e-06  
  1.1335e-09    5.431e-06  
  1.1340e-09    5.431e-06  
  1.1345e-09    5.431e-06  
  1.1350e-09    5.431e-06  
  1.1355e-09    5.431e-06  
  1.1360e-09    5.431e-06  
  1.1365e-09    5.431e-06  
  1.1370e-09    5.431e-06  
  1.1375e-09    5.431e-06  
  1.1380e-09    5.431e-06  
  1.1385e-09    5.430e-06  
  1.1390e-09    5.430e-06  
  1.1395e-09    5.430e-06  
  1.1400e-09    5.430e-06  
  1.1405e-09    5.430e-06  
  1.1410e-09    5.430e-06  
  1.1415e-09    5.430e-06  
  1.1420e-09    5.430e-06  
  1.1425e-09    5.430e-06  
  1.1430e-09    5.430e-06  
  1.1435e-09    5.430e-06  
  1.1440e-09    5.430e-06  
  1.1445e-09    5.429e-06  
  1.1450e-09    5.430e-06  
  1.1455e-09    5.429e-06  
  1.1460e-09    5.429e-06  
  1.1465e-09    5.429e-06  
  1.1470e-09    5.429e-06  
  1.1475e-09    5.429e-06  
  1.1480e-09    5.429e-06  
  1.1485e-09    5.429e-06  
  1.1490e-09    5.429e-06  
  1.1495e-09    5.428e-06  
  1.1500e-09    5.429e-06  
  1.1505e-09    5.428e-06  
  1.1510e-09    5.428e-06  
  1.1515e-09    5.428e-06  
  1.1520e-09    5.428e-06  
  1.1525e-09    5.428e-06  
  1.1530e-09    5.428e-06  
  1.1535e-09    5.428e-06  
  1.1540e-09    5.428e-06  
  1.1545e-09    5.428e-06  
  1.1550e-09    5.428e-06  
  1.1555e-09    5.428e-06  
  1.1560e-09    5.427e-06  
  1.1565e-09    5.427e-06  
  1.1570e-09    5.427e-06  
  1.1575e-09    5.427e-06  
  1.1580e-09    5.427e-06  
  1.1585e-09    5.427e-06  
  1.1590e-09    5.427e-06  
  1.1595e-09    5.427e-06  
  1.1600e-09    5.427e-06  
  1.1605e-09    5.427e-06  
  1.1610e-09    5.427e-06  
  1.1615e-09    5.427e-06  
  1.1620e-09    5.426e-06  
  1.1625e-09    5.427e-06  
  1.1630e-09    5.426e-06  
  1.1635e-09    5.426e-06  
  1.1640e-09    5.426e-06  
  1.1645e-09    5.426e-06  
  1.1650e-09    5.426e-06  
  1.1655e-09    5.426e-06  
  1.1660e-09    5.426e-06  
  1.1665e-09    5.426e-06  
  1.1670e-09    5.426e-06  
  1.1675e-09    5.426e-06  
  1.1680e-09    5.426e-06  
  1.1685e-09    5.425e-06  
  1.1690e-09    5.425e-06  
  1.1695e-09    5.425e-06  
  1.1700e-09    5.425e-06  
  1.1705e-09    5.425e-06  
  1.1710e-09    5.425e-06  
  1.1715e-09    5.425e-06  
  1.1720e-09    5.425e-06  
  1.1725e-09    5.425e-06  
  1.1730e-09    5.425e-06  
  1.1735e-09    5.425e-06  
  1.1740e-09    5.425e-06  
  1.1745e-09    5.424e-06  
  1.1750e-09    5.425e-06  
  1.1755e-09    5.424e-06  
  1.1760e-09    5.424e-06  
  1.1765e-09    5.424e-06  
  1.1770e-09    5.424e-06  
  1.1775e-09    5.424e-06  
  1.1780e-09    5.424e-06  
  1.1785e-09    5.424e-06  
  1.1790e-09    5.424e-06  
  1.1795e-09    5.424e-06  
  1.1800e-09    5.424e-06  
  1.1805e-09    5.424e-06  
  1.1810e-09    5.424e-06  
  1.1815e-09    5.424e-06  
  1.1820e-09    5.423e-06  
  1.1825e-09    5.424e-06  
  1.1830e-09    5.423e-06  
  1.1835e-09    5.423e-06  
  1.1840e-09    5.423e-06  
  1.1845e-09    5.423e-06  
  1.1850e-09    5.423e-06  
  1.1855e-09    5.423e-06  
  1.1860e-09    5.423e-06  
  1.1865e-09    5.423e-06  
  1.1870e-09    5.423e-06  
  1.1875e-09    5.423e-06  
  1.1880e-09    5.423e-06  
  1.1885e-09    5.423e-06  
  1.1890e-09    5.422e-06  
  1.1895e-09    5.422e-06  
  1.1900e-09    5.422e-06  
  1.1905e-09    5.422e-06  
  1.1910e-09    5.422e-06  
  1.1915e-09    5.422e-06  
  1.1920e-09    5.422e-06  
  1.1925e-09    5.422e-06  
  1.1930e-09    5.422e-06  
  1.1935e-09    5.422e-06  
  1.1940e-09    5.422e-06  
  1.1945e-09    5.422e-06  
  1.1950e-09    5.422e-06  
  1.1955e-09    5.422e-06  
  1.1960e-09    5.422e-06  
  1.1965e-09    5.421e-06  
  1.1970e-09    5.421e-06  
  1.1975e-09    5.421e-06  
  1.1980e-09    5.421e-06  
  1.1985e-09    5.421e-06  
  1.1990e-09    5.421e-06  
  1.1995e-09    5.421e-06  
  1.2000e-09    5.421e-06  
y

          ***** job concluded
1****** HSPICE -- F-2011.09 32-BIT (Sep  5 2011) linux ******                   
 ******  
 $ calculate delay of gate

  ******  job statistics summary tnom=  25.000 temp=  25.000 *****
  
  
 ******  Machine Information  ******
 CPU:
 model name	: Intel(R) Xeon(R) CPU           E5520  @ 2.27GHz
 cpu MHz	: 2260.863
  
 OS:
 Linux version 3.16.0-4-amd64 (debian-kernel@lists.debian.org) (gcc version 4.8.
 4 (Debian 4.8.4-1) ) #1 SMP Debian 3.16.7-ckt9-3~deb8u1 (2015-04-24)


  ******  HSPICE Threads Information  ******

  Command Line Threads Count :     1
  Available CPU Count        :    16
  Actual Threads Count       :     1


  ******  Circuit Statistics  ******
  # nodes       =      14 # elements   =      21
  # resistors   =       0 # capacitors =       1 # inductors   =       0
  # mutual_inds =       0 # vccs       =       0 # vcvs        =       0
  # cccs        =       0 # ccvs       =       0 # volt_srcs   =       7
  # curr_srcs   =       1 # diodes     =       0 # bjts        =       0
  # jfets       =       0 # mosfets    =      12 # U elements  =       0
  # T elements  =       0 # W elements =       0 # B elements  =       0
  # S elements  =       0 # P elements =       0 # va device   =       0
  # vector_srcs =       0


  ******  Runtime Statistics (seconds)  ******

  analysis           time    # points   tot. iter  conv.iter
  op point           0.00           1           4
  transient          0.30        2400       14142        4837 rev=        11
  readin             0.02
  errchk             0.00
  setup              0.00
  output             0.00


           peak memory used         85.76 megabytes
           total cpu time            0.34 seconds
           total elapsed time        0.52 seconds
           job started at     17:15:50 09/08/2015
           job ended   at     17:15:51 09/08/2015


 lic: Release hspice token(s) 
