Using: /usr/bin/time -p /synopsys/HSPICE/hspice/linux/hspice singleapprox.sp
 ****** HSPICE -- F-2011.09 32-BIT (Sep  5 2011) linux ******                   
  Copyright (C) 2011 Synopsys, Inc. All Rights Reserved.                        
  Unpublished-rights reserved under US copyright laws.
  This program is protected by law and is subject to the
  terms and conditions of the license agreement from Synopsys.
  Use of this program is your acceptance to be bound by the
  license agreement. HSPICE is the trademark of Synopsys, Inc.
  Input File: singleapprox.sp                                                   
  Command line options: singleapprox.sp
 lic: No 'setenv LM_LICENSE_FILE' in current environment' 
 lic:  
 lic: FLEXlm: v10.8 
 lic: USER:   watkins              HOSTNAME: engr-e132-d15 
 lic: HOSTID: 0026b98531f0         PID:      30345 
 lic: Using FLEXlm license file: 
 lic: 28000@131.230.191.194 
 lic: Checkout 1 hspice 
 lic: License/Maintenance for hspice will expire on 29-nov-2016/2015.06 
 lic: 1(in_use)/50(total) FLOATING license(s) on SERVER 131.230.191.194 
 lic:   
 Init: read install configuration file: /synopsys/HSPICE/hspice/meta.cfg
  **warning** option measfile is disabled due to no .alter in the netlist
1****** HSPICE -- F-2011.09 32-BIT (Sep  5 2011) linux ******                   
 ******  
 

  ******  circuit name directory
 circuit number to circuit name directory
   number circuitname                     definition         multiplier
        0 main circuit
        1 xand1.                          nand2inp           1.00 
        2 xand2.                          nand2inp           1.00 
        3 xand8.                          nand2inp           1.00 
        4 xand9.                          nand2inp           1.00 
1****** HSPICE -- F-2011.09 32-BIT (Sep  5 2011) linux ******                   
 ******  
 

  ******  mos   model parameters tnom=  25.000 temp=  25.000 *****
 Model Name: cmosn  
 BSIM4 Model (Level 54)
    MOBMOD = 0
    BINUNIT = 1
    PARAMCHK = 1
    CAPMOD = 2
    DIOMOD = 1
    RDSMOD = 0
    TRNQSMOD = 0
    ACNQSMOD = 0
    RBODYMOD = 1
    RGATEMOD = 1
    PERMOD = 1
    GEOMOD = 1
    RGEOMOD = 0
    FNOIMOD = 1
    TNOIMOD = 0
    IGCMOD = 1
    IGBMOD = 1
    STIMOD = 0
    VERSION =      4 
    TOXREF = 1.15e-09 
    TOXE = 1.15e-09 
    TOXP =  9e-10 
    TOXM = 1.15e-09 
    DTOX = 2.5e-10 
    EPSROX =    3.9 
    CDSC =      0 
    CDSCB =      0 
    CDSCD =      0 
    CIT =      0 
    NFACTOR =  2.508 
    XJ =  1e-08 
    VSAT = 2.1e+05 
    A0 =      1 
    AGS =      0 
    A1 =      0 
    A2 =      1 
    AT = 3.3e+04 
    KETA =   0.04 
    NSUB =  6e+16 
    NDEP = 4.12e+18 
    NSD =  2e+20 
    NGATE =  1e+23 
    GAMMA1 =      0 
    GAMMA2 =      0 
    VBX =      0 
    VBM =     -3 
    XT = 1.55e-07 
    K1 =    0.4 
    KT1 =  -0.11 
    KT1L =      0 
    KT2 =  0.022 
    K2 =      0 
    K3 =      0 
    K3B =      0 
    LPE0 =      0 
    LPEB =      0 
    DVTP0 =  1e-11 
    DVTP1 =    0.1 
    W0 = 2.5e-06 
    DVT0 =      1 
    DVT1 =      2 
    DVT2 =      0 
    DVT0W =      0 
    DVT1W =      0 
    DVT2W =      0 
    DROUT =    0.5 
    DSUB =    0.1 
    VTH0 =  0.494 
    EU =   1.67 
    UA =  6e-10 
    UA1 = 4.31e-09 
    UB = 1.2e-18 
    UB1 = 7.61e-18 
    UC =      0 
    UC1 = -5.6e-11 
    U0 =   0.05 
    UTE =   -1.5 
    VOFF =  -0.13 
    VOFFL =      0 
    MINV =   0.05 
    FPROUT =    0.2 
    PDITS =   0.01 
    PDITSD =   0.23 
    PDITSL = 2.3e+06 
    DELTA =   0.01 
    RDSW =    150 
    RDSWMIN =      0 
    RDWMIN =      0 
    RSWMIN =      0 
    RDW =     75 
    RSW =     75 
    PRWG =      0 
    PRWB =      0 
    PRT =      0 
    ETA0 = 0.0048 
    ETAB =      0 
    PCLM =   0.02 
    PDIBLC1 =  0.001 
    PDIBLC2 =  0.001 
    PDIBLCB = -0.005 
    PSCBE1 = 8.14e+08 
    PSCBE2 =  1e-07 
    PVAG =  1e-20 
    WR =      1 
    DWG =      0 
    DWB =      0 
    XW =      0 
    XWREF =      0 
    XL = -1.4e-08 
    XLREF = -1.4e-08 
    B0 =      0 
    B1 =      0 
    ALPHA0 =  0.074 
    ALPHA1 =  0.005 
    AGIDL = 0.0002 
    BGIDL = 2.1e+09 
    CGIDL = 0.0002 
    PHIN =      0 
    EGIDL =    0.8 
    AIGC = 0.02001 
    BIGC = 0.002743 
    CIGC =  0.002 
    AIGSD = 0.02001 
    BIGSD = 0.002743 
    CIGSD =  0.002 
    AIGBACC =  0.012 
    BIGBACC = 0.0028 
    CIGBACC =  0.002 
    AIGBINV =  0.014 
    BIGBINV =  0.004 
    CIGBINV =  0.004 
    NIGC =      1 
    NIGBINV =      3 
    NIGBACC =      1 
    NTOX =      1 
    EIGBINV =    1.1 
    PIGCD =      1 
    POXEDGE =      1 
    XRCRG1 =     12 
    TNOIA =    1.5 
    TNOIB =    3.5 
    NTNOI =      1 
    XRCRG2 =      5 
    BETA0 =     30 
    IJTHDFWD =   0.01 
    IJTHSFWD =   0.01 
    IJTHDREV =  0.001 
    IJTHSREV =  0.001 
    XJBVD =      1 
    XJBVS =      1 
    BVD =     10 
    BVS =     10 
    VFB =  -0.55 
    GBMIN =  1e-10 
    RBDB =     15 
    RBPB =      5 
    RBSB =     15 
    RBPS =     15 
    RBPD =     15 
    CGSL = 2.653e-10 
    CGDL = 2.653e-10 
    CKAPPAS =   0.03 
    CKAPPAD =   0.03 
    CF = 1.287e-10 
    CLC =  1e-07 
    CLE =    0.6 
    DWC =  5e-09 
    DLC = 2.7e-09 
    DLCIG = 2.7e-09 
    DWJ =      0 
    VFBCV =     -1 
    ACDE =      1 
    MOIN =     15 
    NOFF =    0.9 
    VOFFCV =   0.02 
    DMCG =      0 
    DMCI =      0 
    DMDG =      0 
    DMCGT =      0 
    XGW =      0 
    XGL =      0 
    RSHG =    0.4 
    NGCON =      1 
    TCJ =  0.001 
    TPB =  0.005 
    TCJSW =  0.001 
    TPBSW =  0.005 
    TCJSWG =  0.001 
    TPBSWG =  0.005 
    SK0 =      0 
    SK1 =      0 
    SK2 =      0 
    SL =  2e-06 
    SW =  2e-06 
    K =      0 
    TNOM =  300.1 
    CGSO = 8.5e-11 
    CGDO = 8.5e-11 
    CGBO = 2.56e-11 
    XPART =      0 
    RSH =      5 
    JSS = 0.0001 
    JSWS =  1e-11 
    JSWGS =  1e-10 
    PBS =      1 
    MJS =    0.5 
    PBSWS =      1 
    MJSWS =   0.33 
    CJS = 0.0005 
    CJSWS =  5e-10 
    NJS =      1 
    PBSWGS =      1 
    MJSWGS =   0.33 
    CJSWGS =  3e-10 
    XTIS =      3 
    JSD = 0.0001 
    JSWD =  1e-11 
    JSWGD =  1e-10 
    PBD =      1 
    MJD =    0.5 
    PBSWD =      1 
    MJSWD =   0.33 
    CJD = 0.0005 
    CJSWD =  5e-10 
    NJD =      1 
    PBSWGD =      1 
    MJSWGD =   0.33 
    CJSWGD =  5e-10 
    XTID =      3 
    LMLT =      1 
    WMLT =      1 
    LINT = 2.7e-09 
    LL =      0 
    LLC =      0 
    LLN =      1 
    LW =      0 
    LWC =      0 
    LWN =      1 
    LWL =      0 
    LWLC =      0 
    LMIN =      0 
    LMAX =      1 
    WINT =  5e-09 
    WL =      0 
    WLC =      0 
    WLN =      1 
    WW =      0 
    WWC =      0 
    WWN =      1 
    WWL =      0 
    WWLC =      0 
    WMIN =      0 
    WMAX =      1 
    NOIA = 6.25e+41 
    NOIB = 3.125e+26 
    NOIC = 8.75e+09 
    EM = 4.1e+07 
    EF =      1 
    AF =      1 
    KF =      0 
    TRS =      0 
    TRD =      0 
 Model Name: cmosp  
 BSIM4 Model (Level 54)
    MOBMOD = 0
    BINUNIT = 1
    PARAMCHK = 1
    CAPMOD = 2
    DIOMOD = 1
    RDSMOD = 0
    TRNQSMOD = 0
    ACNQSMOD = 0
    RBODYMOD = 1
    RGATEMOD = 1
    PERMOD = 1
    GEOMOD = 1
    RGEOMOD = 0
    FNOIMOD = 1
    TNOIMOD = 0
    IGCMOD = 1
    IGBMOD = 1
    STIMOD = 0
    VERSION =      4 
    TOXREF = 1.2e-09 
    TOXE = 1.2e-09 
    TOXP =  9e-10 
    TOXM = 1.2e-09 
    DTOX =  3e-10 
    EPSROX =    3.9 
    CDSC =      0 
    CDSCB =      0 
    CDSCD =      0 
    CIT =      0 
    NFACTOR =    2.1 
    XJ =  1e-08 
    VSAT = 1.8e+05 
    A0 =      1 
    AGS =  1e-20 
    A1 =      0 
    A2 =      1 
    AT = 3.3e+04 
    KETA = -0.047 
    NSUB =  6e+16 
    NDEP = 3.07e+18 
    NSD =  2e+20 
    NGATE =  1e+23 
    GAMMA1 =      0 
    GAMMA2 =      0 
    VBX =      0 
    VBM =     -3 
    XT = 1.55e-07 
    K1 =    0.4 
    KT1 =  -0.11 
    KT1L =      0 
    KT2 =  0.022 
    K2 =  -0.01 
    K3 =      0 
    K3B =      0 
    LPE0 =      0 
    LPEB =      0 
    DVTP0 =  1e-11 
    DVTP1 =   0.05 
    W0 = 2.5e-06 
    DVT0 =      1 
    DVT1 =      2 
    DVT2 = -0.032 
    DVT0W =      0 
    DVT1W =      0 
    DVT2W =      0 
    DROUT =   0.56 
    DSUB =    0.1 
    VTH0 = -0.4916 
    EU =      1 
    UA =  2e-09 
    UA1 = 4.31e-09 
    UB =  5e-19 
    UB1 = 7.61e-18 
    UC =      0 
    UC1 = -5.6e-11 
    U0 =  0.014 
    UTE =   -1.5 
    VOFF = -0.126 
    VOFFL =      0 
    MINV =   0.05 
    FPROUT =    0.2 
    PDITS =   0.08 
    PDITSD =   0.23 
    PDITSL = 2.3e+06 
    DELTA =   0.01 
    RDSW =    150 
    RDSWMIN =      0 
    RDWMIN =      0 
    RSWMIN =      0 
    RDW =     75 
    RSW =     75 
    PRWG =      0 
    PRWB =      0 
    PRT =      0 
    ETA0 = 0.0048 
    ETAB =      0 
    PCLM =   0.12 
    PDIBLC1 =  0.001 
    PDIBLC2 =  0.001 
    PDIBLCB = 3.4e-08 
    PSCBE1 = 8.14e+08 
    PSCBE2 = 9.58e-07 
    PVAG =  1e-20 
    WR =      1 
    DWG =      0 
    DWB =      0 
    XW =      0 
    XWREF =      0 
    XL = -1.4e-08 
    XLREF = -1.4e-08 
    B0 =      0 
    B1 =      0 
    ALPHA0 =  0.074 
    ALPHA1 =  0.005 
    AGIDL = 0.0002 
    BGIDL = 2.1e+09 
    CGIDL = 0.0002 
    PHIN =      0 
    EGIDL =    0.8 
    AIGC = 0.02001 
    BIGC = 0.002743 
    CIGC =  0.002 
    AIGSD = 0.02001 
    BIGSD = 0.002743 
    CIGSD =  0.002 
    AIGBACC =  0.012 
    BIGBACC = 0.0028 
    CIGBACC =  0.002 
    AIGBINV =  0.014 
    BIGBINV =  0.004 
    CIGBINV =  0.004 
    NIGC =      1 
    NIGBINV =      3 
    NIGBACC =      1 
    NTOX =      1 
    EIGBINV =    1.1 
    PIGCD =      1 
    POXEDGE =      1 
    XRCRG1 =     12 
    TNOIA =    1.5 
    TNOIB =    3.5 
    NTNOI =      1 
    XRCRG2 =      5 
    BETA0 =     30 
    IJTHDFWD =   0.01 
    IJTHSFWD =   0.01 
    IJTHDREV =  0.001 
    IJTHSREV =  0.001 
    XJBVD =      1 
    XJBVS =      1 
    BVD =     10 
    BVS =     10 
    VFB =   0.55 
    GBMIN =  1e-10 
    RBDB =     15 
    RBPB =      5 
    RBSB =     15 
    RBPS =     15 
    RBPD =     15 
    CGSL = 2.653e-10 
    CGDL = 2.653e-10 
    CKAPPAS =   0.03 
    CKAPPAD =   0.03 
    CF = 1.278e-10 
    CLC =  1e-07 
    CLE =    0.6 
    DWC =  5e-09 
    DLC = 2.7e-09 
    DLCIG = 2.7e-09 
    DWJ =      0 
    VFBCV =     -1 
    ACDE =      1 
    MOIN =     15 
    NOFF =    0.9 
    VOFFCV =   0.02 
    DMCG =      0 
    DMCI =      0 
    DMDG =      0 
    DMCGT =      0 
    XGW =      0 
    XGL =      0 
    RSHG =    0.4 
    NGCON =      1 
    TCJ =  0.001 
    TPB =  0.005 
    TCJSW =  0.001 
    TPBSW =  0.005 
    TCJSWG =  0.001 
    TPBSWG =  0.005 
    SK0 =      0 
    SK1 =      0 
    SK2 =      0 
    SL =  2e-06 
    SW =  2e-06 
    K =      0 
    TNOM =  300.1 
    CGSO = 8.5e-11 
    CGDO = 8.5e-11 
    CGBO = 2.56e-11 
    XPART =      0 
    RSH =      5 
    JSS = 0.0001 
    JSWS =  1e-11 
    JSWGS =  1e-10 
    PBS =      1 
    MJS =    0.5 
    PBSWS =      1 
    MJSWS =   0.33 
    CJS = 0.0005 
    CJSWS =  5e-10 
    NJS =      1 
    PBSWGS =      1 
    MJSWGS =   0.33 
    CJSWGS =  3e-10 
    XTIS =      3 
    JSD = 0.0001 
    JSWD =  1e-11 
    JSWGD =  1e-10 
    PBD =      1 
    MJD =    0.5 
    PBSWD =      1 
    MJSWD =   0.33 
    CJD = 0.0005 
    CJSWD =  5e-10 
    NJD =      1 
    PBSWGD =      1 
    MJSWGD =   0.33 
    CJSWGD =  5e-10 
    XTID =      3 
    LMLT =      1 
    WMLT =      1 
    LINT = 2.7e-09 
    LL =      0 
    LLC =      0 
    LLN =      1 
    LW =      0 
    LWC =      0 
    LWN =      1 
    LWL =      0 
    LWLC =      0 
    LMIN =      0 
    LMAX =      1 
    WINT =  5e-09 
    WL =      0 
    WLC =      0 
    WLN =      1 
    WW =      0 
    WWC =      0 
    WWN =      1 
    WWL =      0 
    WWLC =      0 
    WMIN =      0 
    WMAX =      1 
    NOIA = 6.188e+40 
    NOIB = 1.5e+25 
    NOIC = 8.75e+09 
    EM = 4.1e+07 
    EF =      1 
    AF =      1 
    KF =      0 
    TRS =      0 
    TRD =      0 
  **info** (singleapprox.sp:21) DC voltage reset to initial transient source value              in source        0:iup                 new dc=  0.0000D+00
 **warning**(cmosn:mn1)Warning:  Acde = 0.263957 may be too small in BSIM4 model with w=4e-08 l=3.2e-08.
  
      
 **info** set option symb=1 internally to help for convergence.
 *****************************************************************
 ******  option summary
 ******
 runlvl  = 3         bypass  = 2         
  Opening plot unit= 15
 file=singleapprox.pa0                                                         

1****** HSPICE -- F-2011.09 32-BIT (Sep  5 2011) linux ******                   
 ******  
 

  ******  operating point information tnom=  25.000 temp=  25.000 *****
 ***** operating point status is voltage   simulation time is     0.     
    node    =voltage      node    =voltage      node    =voltage

 +0:a       =   1.0500  0:b       =   1.0500  0:c       =   1.0500 
 +0:cn1     = 1.564e-04 0:cn2     = 7.831e-05 0:p10     = 1.044e-04
 +0:p11     =   1.0500  0:p12     =   1.0500  0:p13     = 2.342e-04
 +0:p9      = 1.044e-04 0:vdd     =   1.0500  1:cn1     = 5.234e-05
 +2:cn1     =   0.7873  3:cn1     = 5.234e-05 4:cn1     =   0.7873 


 maximum nodal capacitance=   2.167E-15         on node     0:vdd             

    nodal  capacitance table 

    node    =    cap      node    =    cap      node    =    cap

 +0:a       = 9.124e-17 0:b       = 4.484e-16 0:c       = 9.124e-17
 +0:cn1     = 9.617e-17 0:cn2     = 9.617e-17 0:p10     = 2.637e-16
 +0:p11     = 2.922e-16 0:p12     = 2.922e-16 0:p13     = 1.948e-16
 +0:p9      = 2.637e-16 0:vdd     = 2.167e-15 1:cn1     = 9.617e-17
 +2:cn1     = 6.391e-17 3:cn1     = 9.617e-17 4:cn1     = 6.391e-17

 
 ******  
 

  ******  transient analysis tnom=  25.000 temp=  25.000 *****

   *** data name = setsrce  1st sweep ***

x

        time    voltage      voltage    
                    cn1          cn2    
    0.          1.564e-04    7.831e-05  
  5.0000e-13    1.564e-04    7.831e-05  
  1.0000e-12    1.564e-04    7.831e-05  
  1.5000e-12    1.564e-04    7.831e-05  
  2.0000e-12    1.564e-04    7.831e-05  
  2.5000e-12    1.564e-04    7.831e-05  
  3.0000e-12    1.564e-04    7.831e-05  
  3.5000e-12    1.564e-04    7.831e-05  
  4.0000e-12    1.564e-04    7.831e-05  
  4.5000e-12    1.564e-04    7.831e-05  
  5.0000e-12    1.564e-04    7.831e-05  
  5.5000e-12    1.564e-04    7.831e-05  
  6.0000e-12    1.564e-04    7.831e-05  
  6.5000e-12    1.564e-04    7.831e-05  
  7.0000e-12    1.564e-04    7.831e-05  
  7.5000e-12    1.564e-04    7.831e-05  
  8.0000e-12    1.564e-04    7.831e-05  
  8.5000e-12    1.564e-04    7.831e-05  
  9.0000e-12    1.564e-04    7.831e-05  
  9.5000e-12    1.564e-04    7.831e-05  
  1.0000e-11    1.564e-04    7.831e-05  
  1.0500e-11    1.564e-04    7.831e-05  
  1.1000e-11    1.564e-04    7.831e-05  
  1.1500e-11    1.564e-04    7.831e-05  
  1.2000e-11    1.564e-04    7.831e-05  
  1.2500e-11    1.564e-04    7.831e-05  
  1.3000e-11    1.564e-04    7.831e-05  
  1.3500e-11    1.564e-04    7.831e-05  
  1.4000e-11    1.564e-04    7.831e-05  
  1.4500e-11    1.564e-04    7.831e-05  
  1.5000e-11    1.564e-04    7.831e-05  
  1.5500e-11    1.564e-04    7.831e-05  
  1.6000e-11    1.564e-04    7.831e-05  
  1.6500e-11    1.564e-04    7.831e-05  
  1.7000e-11    1.564e-04    7.831e-05  
  1.7500e-11    1.564e-04    7.831e-05  
  1.8000e-11    1.564e-04    7.831e-05  
  1.8500e-11    1.564e-04    7.831e-05  
  1.9000e-11    1.564e-04    7.831e-05  
  1.9500e-11    1.564e-04    7.831e-05  
  2.0000e-11    1.564e-04    7.831e-05  
  2.0500e-11    1.564e-04    7.831e-05  
  2.1000e-11    1.564e-04    7.831e-05  
  2.1500e-11    1.564e-04    7.831e-05  
  2.2000e-11    1.564e-04    7.831e-05  
  2.2500e-11    1.564e-04    7.831e-05  
  2.3000e-11    1.564e-04    7.831e-05  
  2.3500e-11    1.564e-04    7.831e-05  
  2.4000e-11    1.564e-04    7.831e-05  
  2.4500e-11    1.564e-04    7.831e-05  
  2.5000e-11    1.564e-04    7.831e-05  
  2.5500e-11    1.564e-04    7.831e-05  
  2.6000e-11    1.564e-04    7.831e-05  
  2.6500e-11    1.564e-04    7.831e-05  
  2.7000e-11    1.564e-04    7.831e-05  
  2.7500e-11    1.564e-04    7.831e-05  
  2.8000e-11    1.564e-04    7.831e-05  
  2.8500e-11    1.564e-04    7.831e-05  
  2.9000e-11    1.564e-04    7.831e-05  
  2.9500e-11    1.564e-04    7.831e-05  
  3.0000e-11    1.564e-04    7.831e-05  
  3.0500e-11    1.564e-04    7.831e-05  
  3.1000e-11    1.564e-04    7.831e-05  
  3.1500e-11    1.564e-04    7.831e-05  
  3.2000e-11    1.564e-04    7.831e-05  
  3.2500e-11    1.564e-04    7.831e-05  
  3.3000e-11    1.564e-04    7.831e-05  
  3.3500e-11    1.564e-04    7.831e-05  
  3.4000e-11    1.564e-04    7.831e-05  
  3.4500e-11    1.564e-04    7.831e-05  
  3.5000e-11    1.564e-04    7.831e-05  
  3.5500e-11    1.564e-04    7.831e-05  
  3.6000e-11    1.564e-04    7.831e-05  
  3.6500e-11    1.564e-04    7.831e-05  
  3.7000e-11    1.564e-04    7.831e-05  
  3.7500e-11    1.564e-04    7.831e-05  
  3.8000e-11    1.564e-04    7.831e-05  
  3.8500e-11    1.564e-04    7.831e-05  
  3.9000e-11    1.564e-04    7.831e-05  
  3.9500e-11    1.564e-04    7.831e-05  
  4.0000e-11    1.564e-04    7.831e-05  
  4.0500e-11    1.564e-04    7.831e-05  
  4.1000e-11    1.564e-04    7.831e-05  
  4.1500e-11    1.564e-04    7.831e-05  
  4.2000e-11    1.564e-04    7.831e-05  
  4.2500e-11    1.564e-04    7.831e-05  
  4.3000e-11    1.564e-04    7.831e-05  
  4.3500e-11    1.564e-04    7.831e-05  
  4.4000e-11    1.564e-04    7.831e-05  
  4.4500e-11    1.564e-04    7.831e-05  
  4.5000e-11    1.564e-04    7.831e-05  
  4.5500e-11    1.564e-04    7.831e-05  
  4.6000e-11    1.564e-04    7.831e-05  
  4.6500e-11    1.564e-04    7.831e-05  
  4.7000e-11    1.564e-04    7.831e-05  
  4.7500e-11    1.564e-04    7.831e-05  
  4.8000e-11    1.564e-04    7.831e-05  
  4.8500e-11    1.564e-04    7.831e-05  
  4.9000e-11    1.564e-04    7.831e-05  
  4.9500e-11    1.564e-04    7.831e-05  
  5.0000e-11    1.564e-04    7.831e-05  
  5.0500e-11    1.564e-04    7.831e-05  
  5.1000e-11    1.564e-04    7.831e-05  
  5.1500e-11    1.564e-04    7.831e-05  
  5.2000e-11    1.564e-04    7.831e-05  
  5.2500e-11    1.564e-04    7.831e-05  
  5.3000e-11    1.564e-04    7.831e-05  
  5.3500e-11    1.564e-04    7.831e-05  
  5.4000e-11    1.564e-04    7.831e-05  
  5.4500e-11    1.564e-04    7.831e-05  
  5.5000e-11    1.564e-04    7.831e-05  
  5.5500e-11    1.564e-04    7.831e-05  
  5.6000e-11    1.564e-04    7.831e-05  
  5.6500e-11    1.564e-04    7.831e-05  
  5.7000e-11    1.564e-04    7.831e-05  
  5.7500e-11    1.564e-04    7.831e-05  
  5.8000e-11    1.564e-04    7.831e-05  
  5.8500e-11    1.564e-04    7.831e-05  
  5.9000e-11    1.564e-04    7.831e-05  
  5.9500e-11    1.564e-04    7.831e-05  
  6.0000e-11    1.564e-04    7.831e-05  
  6.0500e-11    1.564e-04    7.831e-05  
  6.1000e-11    1.564e-04    7.831e-05  
  6.1500e-11    1.564e-04    7.831e-05  
  6.2000e-11    1.564e-04    7.831e-05  
  6.2500e-11    1.564e-04    7.831e-05  
  6.3000e-11    1.564e-04    7.831e-05  
  6.3500e-11    1.564e-04    7.831e-05  
  6.4000e-11    1.564e-04    7.831e-05  
  6.4500e-11    1.564e-04    7.831e-05  
  6.5000e-11    1.564e-04    7.831e-05  
  6.5500e-11    1.564e-04    7.831e-05  
  6.6000e-11    1.564e-04    7.831e-05  
  6.6500e-11    1.564e-04    7.831e-05  
  6.7000e-11    1.564e-04    7.831e-05  
  6.7500e-11    1.564e-04    7.831e-05  
  6.8000e-11    1.564e-04    7.831e-05  
  6.8500e-11    1.564e-04    7.831e-05  
  6.9000e-11    1.564e-04    7.831e-05  
  6.9500e-11    1.564e-04    7.831e-05  
  7.0000e-11    1.564e-04    7.831e-05  
  7.0500e-11    1.564e-04    7.831e-05  
  7.1000e-11    1.564e-04    7.831e-05  
  7.1500e-11    1.564e-04    7.831e-05  
  7.2000e-11    1.564e-04    7.831e-05  
  7.2500e-11    1.564e-04    7.831e-05  
  7.3000e-11    1.564e-04    7.831e-05  
  7.3500e-11    1.564e-04    7.831e-05  
  7.4000e-11    1.564e-04    7.831e-05  
  7.4500e-11    1.564e-04    7.831e-05  
  7.5000e-11    1.564e-04    7.831e-05  
  7.5500e-11    1.564e-04    7.831e-05  
  7.6000e-11    1.564e-04    7.831e-05  
  7.6500e-11    1.564e-04    7.831e-05  
  7.7000e-11    1.564e-04    7.831e-05  
  7.7500e-11    1.564e-04    7.831e-05  
  7.8000e-11    1.564e-04    7.831e-05  
  7.8500e-11    1.564e-04    7.831e-05  
  7.9000e-11    1.564e-04    7.831e-05  
  7.9500e-11    1.564e-04    7.831e-05  
  8.0000e-11    1.564e-04    7.831e-05  
  8.0500e-11    1.564e-04    7.831e-05  
  8.1000e-11    1.564e-04    7.831e-05  
  8.1500e-11    1.564e-04    7.831e-05  
  8.2000e-11    1.564e-04    7.831e-05  
  8.2500e-11    1.564e-04    7.831e-05  
  8.3000e-11    1.564e-04    7.831e-05  
  8.3500e-11    1.564e-04    7.831e-05  
  8.4000e-11    1.564e-04    7.831e-05  
  8.4500e-11    1.564e-04    7.831e-05  
  8.5000e-11    1.564e-04    7.831e-05  
  8.5500e-11    1.564e-04    7.831e-05  
  8.6000e-11    1.564e-04    7.831e-05  
  8.6500e-11    1.564e-04    7.831e-05  
  8.7000e-11    1.564e-04    7.831e-05  
  8.7500e-11    1.564e-04    7.831e-05  
  8.8000e-11    1.564e-04    7.831e-05  
  8.8500e-11    1.564e-04    7.831e-05  
  8.9000e-11    1.564e-04    7.831e-05  
  8.9500e-11    1.564e-04    7.831e-05  
  9.0000e-11    1.564e-04    7.831e-05  
  9.0500e-11    1.564e-04    7.831e-05  
  9.1000e-11    1.564e-04    7.831e-05  
  9.1500e-11    1.564e-04    7.831e-05  
  9.2000e-11    1.564e-04    7.831e-05  
  9.2500e-11    1.564e-04    7.831e-05  
  9.3000e-11    1.564e-04    7.831e-05  
  9.3500e-11    1.564e-04    7.831e-05  
  9.4000e-11    1.564e-04    7.831e-05  
  9.4500e-11    1.564e-04    7.831e-05  
  9.5000e-11    1.564e-04    7.831e-05  
  9.5500e-11    1.564e-04    7.831e-05  
  9.6000e-11    1.564e-04    7.831e-05  
  9.6500e-11    1.564e-04    7.831e-05  
  9.7000e-11    1.564e-04    7.831e-05  
  9.7500e-11    1.564e-04    7.831e-05  
  9.8000e-11    1.564e-04    7.831e-05  
  9.8500e-11    1.564e-04    7.831e-05  
  9.9000e-11    1.564e-04    7.831e-05  
  9.9500e-11    1.564e-04    7.831e-05  
  1.0000e-10    1.564e-04    7.831e-05  
  1.0050e-10    1.564e-04    7.831e-05  
  1.0100e-10    1.564e-04    7.831e-05  
  1.0150e-10    1.564e-04    7.831e-05  
  1.0200e-10    1.564e-04    7.831e-05  
  1.0250e-10    1.564e-04    7.831e-05  
  1.0300e-10    1.564e-04    7.831e-05  
  1.0350e-10    1.564e-04    7.831e-05  
  1.0400e-10    1.564e-04    7.831e-05  
  1.0450e-10    1.564e-04    7.831e-05  
  1.0500e-10    1.564e-04    7.831e-05  
  1.0550e-10    1.564e-04    7.831e-05  
  1.0600e-10    1.564e-04    7.831e-05  
  1.0650e-10    1.564e-04    7.831e-05  
  1.0700e-10    1.564e-04    7.831e-05  
  1.0750e-10    1.564e-04    7.831e-05  
  1.0800e-10    1.564e-04    7.831e-05  
  1.0850e-10    1.564e-04    7.831e-05  
  1.0900e-10    1.564e-04    7.831e-05  
  1.0950e-10    1.564e-04    7.831e-05  
  1.1000e-10    1.564e-04    7.831e-05  
  1.1050e-10    1.564e-04    7.831e-05  
  1.1100e-10    1.564e-04    7.831e-05  
  1.1150e-10    1.564e-04    7.831e-05  
  1.1200e-10    1.564e-04    7.831e-05  
  1.1250e-10    1.564e-04    7.831e-05  
  1.1300e-10    1.564e-04    7.831e-05  
  1.1350e-10    1.564e-04    7.831e-05  
  1.1400e-10    1.564e-04    7.831e-05  
  1.1450e-10    1.564e-04    7.831e-05  
  1.1500e-10    1.564e-04    7.831e-05  
  1.1550e-10    1.564e-04    7.831e-05  
  1.1600e-10    1.564e-04    7.831e-05  
  1.1650e-10    1.564e-04    7.831e-05  
  1.1700e-10    1.564e-04    7.831e-05  
  1.1750e-10    1.564e-04    7.831e-05  
  1.1800e-10    1.564e-04    7.831e-05  
  1.1850e-10    1.564e-04    7.831e-05  
  1.1900e-10    1.564e-04    7.831e-05  
  1.1950e-10    1.564e-04    7.831e-05  
  1.2000e-10    1.564e-04    7.831e-05  
  1.2050e-10    1.564e-04    7.831e-05  
  1.2100e-10    1.564e-04    7.831e-05  
  1.2150e-10    1.564e-04    7.831e-05  
  1.2200e-10    1.564e-04    7.831e-05  
  1.2250e-10    1.564e-04    7.831e-05  
  1.2300e-10    1.564e-04    7.831e-05  
  1.2350e-10    1.564e-04    7.831e-05  
  1.2400e-10    1.564e-04    7.831e-05  
  1.2450e-10    1.564e-04    7.831e-05  
  1.2500e-10    1.564e-04    7.831e-05  
  1.2550e-10    1.564e-04    7.831e-05  
  1.2600e-10    1.564e-04    7.831e-05  
  1.2650e-10    1.564e-04    7.831e-05  
  1.2700e-10    1.564e-04    7.831e-05  
  1.2750e-10    1.564e-04    7.831e-05  
  1.2800e-10    1.564e-04    7.831e-05  
  1.2850e-10    1.564e-04    7.831e-05  
  1.2900e-10    1.564e-04    7.831e-05  
  1.2950e-10    1.564e-04    7.831e-05  
  1.3000e-10    1.564e-04    7.831e-05  
  1.3050e-10    1.564e-04    7.831e-05  
  1.3100e-10    1.564e-04    7.831e-05  
  1.3150e-10    1.564e-04    7.831e-05  
  1.3200e-10    1.564e-04    7.831e-05  
  1.3250e-10    1.564e-04    7.831e-05  
  1.3300e-10    1.564e-04    7.831e-05  
  1.3350e-10    1.564e-04    7.831e-05  
  1.3400e-10    1.564e-04    7.831e-05  
  1.3450e-10    1.564e-04    7.831e-05  
  1.3500e-10    1.564e-04    7.831e-05  
  1.3550e-10    1.564e-04    7.831e-05  
  1.3600e-10    1.564e-04    7.831e-05  
  1.3650e-10    1.564e-04    7.831e-05  
  1.3700e-10    1.564e-04    7.831e-05  
  1.3750e-10    1.564e-04    7.831e-05  
  1.3800e-10    1.564e-04    7.831e-05  
  1.3850e-10    1.564e-04    7.831e-05  
  1.3900e-10    1.564e-04    7.831e-05  
  1.3950e-10    1.564e-04    7.831e-05  
  1.4000e-10    1.564e-04    7.831e-05  
  1.4050e-10    1.564e-04    7.831e-05  
  1.4100e-10    1.564e-04    7.831e-05  
  1.4150e-10    1.564e-04    7.831e-05  
  1.4200e-10    1.564e-04    7.831e-05  
  1.4250e-10    1.564e-04    7.831e-05  
  1.4300e-10    1.564e-04    7.831e-05  
  1.4350e-10    1.564e-04    7.831e-05  
  1.4400e-10    1.564e-04    7.831e-05  
  1.4450e-10    1.564e-04    7.831e-05  
  1.4500e-10    1.564e-04    7.831e-05  
  1.4550e-10    1.564e-04    7.831e-05  
  1.4600e-10    1.564e-04    7.831e-05  
  1.4650e-10    1.564e-04    7.831e-05  
  1.4700e-10    1.564e-04    7.831e-05  
  1.4750e-10    1.564e-04    7.831e-05  
  1.4800e-10    1.564e-04    7.831e-05  
  1.4850e-10    1.564e-04    7.831e-05  
  1.4900e-10    1.564e-04    7.831e-05  
  1.4950e-10    1.564e-04    7.831e-05  
  1.5000e-10    1.564e-04    7.831e-05  
  1.5050e-10    1.564e-04    7.831e-05  
  1.5100e-10    1.564e-04    7.831e-05  
  1.5150e-10    1.564e-04    7.831e-05  
  1.5200e-10    1.564e-04    7.831e-05  
  1.5250e-10    1.564e-04    7.831e-05  
  1.5300e-10    1.564e-04    7.831e-05  
  1.5350e-10    1.564e-04    7.831e-05  
  1.5400e-10    1.564e-04    7.831e-05  
  1.5450e-10    1.564e-04    7.831e-05  
  1.5500e-10    1.564e-04    7.831e-05  
  1.5550e-10    1.564e-04    7.831e-05  
  1.5600e-10    1.564e-04    7.831e-05  
  1.5650e-10    1.564e-04    7.831e-05  
  1.5700e-10    1.564e-04    7.831e-05  
  1.5750e-10    1.564e-04    7.831e-05  
  1.5800e-10    1.564e-04    7.831e-05  
  1.5850e-10    1.564e-04    7.831e-05  
  1.5900e-10    1.564e-04    7.831e-05  
  1.5950e-10    1.564e-04    7.831e-05  
  1.6000e-10    1.564e-04    7.831e-05  
  1.6050e-10    1.564e-04    7.831e-05  
  1.6100e-10    1.564e-04    7.831e-05  
  1.6150e-10    1.564e-04    7.831e-05  
  1.6200e-10    1.564e-04    7.831e-05  
  1.6250e-10    1.564e-04    7.831e-05  
  1.6300e-10    1.564e-04    7.831e-05  
  1.6350e-10    1.564e-04    7.831e-05  
  1.6400e-10    1.564e-04    7.831e-05  
  1.6450e-10    1.564e-04    7.831e-05  
  1.6500e-10    1.564e-04    7.831e-05  
  1.6550e-10    1.564e-04    7.831e-05  
  1.6600e-10    1.564e-04    7.831e-05  
  1.6650e-10    1.564e-04    7.831e-05  
  1.6700e-10    1.564e-04    7.831e-05  
  1.6750e-10    1.564e-04    7.831e-05  
  1.6800e-10    1.564e-04    7.831e-05  
  1.6850e-10    1.564e-04    7.831e-05  
  1.6900e-10    1.564e-04    7.831e-05  
  1.6950e-10    1.564e-04    7.831e-05  
  1.7000e-10    1.564e-04    7.831e-05  
  1.7050e-10    1.564e-04    7.831e-05  
  1.7100e-10    1.564e-04    7.831e-05  
  1.7150e-10    1.564e-04    7.831e-05  
  1.7200e-10    1.564e-04    7.831e-05  
  1.7250e-10    1.564e-04    7.831e-05  
  1.7300e-10    1.564e-04    7.831e-05  
  1.7350e-10    1.564e-04    7.831e-05  
  1.7400e-10    1.564e-04    7.831e-05  
  1.7450e-10    1.564e-04    7.831e-05  
  1.7500e-10    1.564e-04    7.831e-05  
  1.7550e-10    1.564e-04    7.831e-05  
  1.7600e-10    1.564e-04    7.831e-05  
  1.7650e-10    1.564e-04    7.831e-05  
  1.7700e-10    1.564e-04    7.831e-05  
  1.7750e-10    1.564e-04    7.831e-05  
  1.7800e-10    1.564e-04    7.831e-05  
  1.7850e-10    1.564e-04    7.831e-05  
  1.7900e-10    1.564e-04    7.831e-05  
  1.7950e-10    1.564e-04    7.831e-05  
  1.8000e-10    1.564e-04    7.831e-05  
  1.8050e-10    1.564e-04    7.831e-05  
  1.8100e-10    1.564e-04    7.831e-05  
  1.8150e-10    1.564e-04    7.831e-05  
  1.8200e-10    1.564e-04    7.831e-05  
  1.8250e-10    1.564e-04    7.831e-05  
  1.8300e-10    1.564e-04    7.831e-05  
  1.8350e-10    1.564e-04    7.831e-05  
  1.8400e-10    1.564e-04    7.831e-05  
  1.8450e-10    1.564e-04    7.831e-05  
  1.8500e-10    1.564e-04    7.831e-05  
  1.8550e-10    1.564e-04    7.831e-05  
  1.8600e-10    1.564e-04    7.831e-05  
  1.8650e-10    1.564e-04    7.831e-05  
  1.8700e-10    1.564e-04    7.831e-05  
  1.8750e-10    1.564e-04    7.831e-05  
  1.8800e-10    1.564e-04    7.831e-05  
  1.8850e-10    1.564e-04    7.831e-05  
  1.8900e-10    1.564e-04    7.831e-05  
  1.8950e-10    1.564e-04    7.831e-05  
  1.9000e-10    1.564e-04    7.831e-05  
  1.9050e-10    1.564e-04    7.831e-05  
  1.9100e-10    1.564e-04    7.831e-05  
  1.9150e-10    1.564e-04    7.831e-05  
  1.9200e-10    1.564e-04    7.831e-05  
  1.9250e-10    1.564e-04    7.831e-05  
  1.9300e-10    1.564e-04    7.831e-05  
  1.9350e-10    1.564e-04    7.831e-05  
  1.9400e-10    1.564e-04    7.831e-05  
  1.9450e-10    1.564e-04    7.831e-05  
  1.9500e-10    1.564e-04    7.831e-05  
  1.9550e-10    1.564e-04    7.831e-05  
  1.9600e-10    1.564e-04    7.831e-05  
  1.9650e-10    1.564e-04    7.831e-05  
  1.9700e-10    1.564e-04    7.831e-05  
  1.9750e-10    1.564e-04    7.831e-05  
  1.9800e-10    1.564e-04    7.831e-05  
  1.9850e-10    1.564e-04    7.831e-05  
  1.9900e-10    1.564e-04    7.831e-05  
  1.9950e-10    1.564e-04    7.831e-05  
  2.0000e-10    1.564e-04    7.831e-05  
  2.0050e-10    1.564e-04    7.831e-05  
  2.0100e-10    1.564e-04    7.831e-05  
  2.0150e-10    1.564e-04    7.831e-05  
  2.0200e-10    1.564e-04    7.831e-05  
  2.0250e-10    1.564e-04    7.831e-05  
  2.0300e-10    1.564e-04    7.831e-05  
  2.0350e-10    1.564e-04    7.831e-05  
  2.0400e-10    1.564e-04    7.831e-05  
  2.0450e-10    1.564e-04    7.831e-05  
  2.0500e-10    1.564e-04    7.831e-05  
  2.0550e-10    1.564e-04    7.831e-05  
  2.0600e-10    1.564e-04    7.831e-05  
  2.0650e-10    1.564e-04    7.831e-05  
  2.0700e-10    1.564e-04    7.831e-05  
  2.0750e-10    1.564e-04    7.831e-05  
  2.0800e-10    1.564e-04    7.831e-05  
  2.0850e-10    1.564e-04    7.831e-05  
  2.0900e-10    1.564e-04    7.831e-05  
  2.0950e-10    1.564e-04    7.831e-05  
  2.1000e-10    1.564e-04    7.831e-05  
  2.1050e-10    1.564e-04    7.831e-05  
  2.1100e-10    1.564e-04    7.831e-05  
  2.1150e-10    1.564e-04    7.831e-05  
  2.1200e-10    1.564e-04    7.831e-05  
  2.1250e-10    1.564e-04    7.831e-05  
  2.1300e-10    1.564e-04    7.831e-05  
  2.1350e-10    1.564e-04    7.831e-05  
  2.1400e-10    1.564e-04    7.831e-05  
  2.1450e-10    1.564e-04    7.831e-05  
  2.1500e-10    1.564e-04    7.831e-05  
  2.1550e-10    1.564e-04    7.831e-05  
  2.1600e-10    1.564e-04    7.831e-05  
  2.1650e-10    1.564e-04    7.831e-05  
  2.1700e-10    1.564e-04    7.831e-05  
  2.1750e-10    1.564e-04    7.831e-05  
  2.1800e-10    1.564e-04    7.831e-05  
  2.1850e-10    1.564e-04    7.831e-05  
  2.1900e-10    1.564e-04    7.831e-05  
  2.1950e-10    1.564e-04    7.831e-05  
  2.2000e-10    1.564e-04    7.831e-05  
  2.2050e-10    1.564e-04    7.831e-05  
  2.2100e-10    1.564e-04    7.831e-05  
  2.2150e-10    1.564e-04    7.831e-05  
  2.2200e-10    1.564e-04    7.831e-05  
  2.2250e-10    1.564e-04    7.831e-05  
  2.2300e-10    1.564e-04    7.831e-05  
  2.2350e-10    1.564e-04    7.831e-05  
  2.2400e-10    1.564e-04    7.831e-05  
  2.2450e-10    1.564e-04    7.831e-05  
  2.2500e-10    1.564e-04    7.831e-05  
  2.2550e-10    1.564e-04    7.831e-05  
  2.2600e-10    1.564e-04    7.831e-05  
  2.2650e-10    1.564e-04    7.831e-05  
  2.2700e-10    1.564e-04    7.831e-05  
  2.2750e-10    1.564e-04    7.831e-05  
  2.2800e-10    1.564e-04    7.831e-05  
  2.2850e-10    1.564e-04    7.831e-05  
  2.2900e-10    1.564e-04    7.831e-05  
  2.2950e-10    1.564e-04    7.831e-05  
  2.3000e-10    1.564e-04    7.831e-05  
  2.3050e-10    1.564e-04    7.831e-05  
  2.3100e-10    1.564e-04    7.831e-05  
  2.3150e-10    1.564e-04    7.831e-05  
  2.3200e-10    1.564e-04    7.831e-05  
  2.3250e-10    1.564e-04    7.831e-05  
  2.3300e-10    1.564e-04    7.831e-05  
  2.3350e-10    1.564e-04    7.831e-05  
  2.3400e-10    1.564e-04    7.831e-05  
  2.3450e-10    1.564e-04    7.831e-05  
  2.3500e-10    1.564e-04    7.831e-05  
  2.3550e-10    1.564e-04    7.831e-05  
  2.3600e-10    1.564e-04    7.831e-05  
  2.3650e-10    1.564e-04    7.831e-05  
  2.3700e-10    1.564e-04    7.831e-05  
  2.3750e-10    1.564e-04    7.831e-05  
  2.3800e-10    1.564e-04    7.831e-05  
  2.3850e-10    1.564e-04    7.831e-05  
  2.3900e-10    1.564e-04    7.831e-05  
  2.3950e-10    1.564e-04    7.831e-05  
  2.4000e-10    1.564e-04    7.831e-05  
  2.4050e-10    1.564e-04    7.831e-05  
  2.4100e-10    1.564e-04    7.831e-05  
  2.4150e-10    1.564e-04    7.831e-05  
  2.4200e-10    1.564e-04    7.831e-05  
  2.4250e-10    1.564e-04    7.831e-05  
  2.4300e-10    1.564e-04    7.831e-05  
  2.4350e-10    1.564e-04    7.831e-05  
  2.4400e-10    1.564e-04    7.831e-05  
  2.4450e-10    1.564e-04    7.831e-05  
  2.4500e-10    1.564e-04    7.831e-05  
  2.4550e-10    1.564e-04    7.831e-05  
  2.4600e-10    1.564e-04    7.831e-05  
  2.4650e-10    1.564e-04    7.831e-05  
  2.4700e-10    1.564e-04    7.831e-05  
  2.4750e-10    1.564e-04    7.831e-05  
  2.4800e-10    1.564e-04    7.831e-05  
  2.4850e-10    1.564e-04    7.831e-05  
  2.4900e-10    1.564e-04    7.831e-05  
  2.4950e-10    1.564e-04    7.831e-05  
  2.5000e-10    1.564e-04    7.831e-05  
  2.5050e-10    1.564e-04    7.831e-05  
  2.5100e-10    1.564e-04    7.831e-05  
  2.5150e-10    1.564e-04    7.831e-05  
  2.5200e-10    1.564e-04    7.831e-05  
  2.5250e-10    1.564e-04    7.831e-05  
  2.5300e-10    1.564e-04    7.831e-05  
  2.5350e-10    1.564e-04    7.831e-05  
  2.5400e-10    1.564e-04    7.831e-05  
  2.5450e-10    1.564e-04    7.831e-05  
  2.5500e-10    1.564e-04    7.831e-05  
  2.5550e-10    1.564e-04    7.831e-05  
  2.5600e-10    1.564e-04    7.831e-05  
  2.5650e-10    1.564e-04    7.831e-05  
  2.5700e-10    1.564e-04    7.831e-05  
  2.5750e-10    1.564e-04    7.831e-05  
  2.5800e-10    1.564e-04    7.831e-05  
  2.5850e-10    1.564e-04    7.831e-05  
  2.5900e-10    1.564e-04    7.831e-05  
  2.5950e-10    1.564e-04    7.831e-05  
  2.6000e-10    1.564e-04    7.831e-05  
  2.6050e-10    1.564e-04    7.831e-05  
  2.6100e-10    1.564e-04    7.831e-05  
  2.6150e-10    1.564e-04    7.831e-05  
  2.6200e-10    1.564e-04    7.831e-05  
  2.6250e-10    1.564e-04    7.831e-05  
  2.6300e-10    1.564e-04    7.831e-05  
  2.6350e-10    1.564e-04    7.831e-05  
  2.6400e-10    1.564e-04    7.831e-05  
  2.6450e-10    1.564e-04    7.831e-05  
  2.6500e-10    1.564e-04    7.831e-05  
  2.6550e-10    1.564e-04    7.831e-05  
  2.6600e-10    1.564e-04    7.831e-05  
  2.6650e-10    1.564e-04    7.831e-05  
  2.6700e-10    1.564e-04    7.831e-05  
  2.6750e-10    1.564e-04    7.831e-05  
  2.6800e-10    1.564e-04    7.831e-05  
  2.6850e-10    1.564e-04    7.831e-05  
  2.6900e-10    1.564e-04    7.831e-05  
  2.6950e-10    1.564e-04    7.831e-05  
  2.7000e-10    1.564e-04    7.831e-05  
  2.7050e-10    1.564e-04    7.831e-05  
  2.7100e-10    1.564e-04    7.831e-05  
  2.7150e-10    1.564e-04    7.831e-05  
  2.7200e-10    1.564e-04    7.831e-05  
  2.7250e-10    1.564e-04    7.831e-05  
  2.7300e-10    1.564e-04    7.831e-05  
  2.7350e-10    1.564e-04    7.831e-05  
  2.7400e-10    1.564e-04    7.831e-05  
  2.7450e-10    1.564e-04    7.831e-05  
  2.7500e-10    1.564e-04    7.831e-05  
  2.7550e-10    1.564e-04    7.831e-05  
  2.7600e-10    1.564e-04    7.831e-05  
  2.7650e-10    1.564e-04    7.831e-05  
  2.7700e-10    1.564e-04    7.831e-05  
  2.7750e-10    1.564e-04    7.831e-05  
  2.7800e-10    1.564e-04    7.831e-05  
  2.7850e-10    1.564e-04    7.831e-05  
  2.7900e-10    1.564e-04    7.831e-05  
  2.7950e-10    1.564e-04    7.831e-05  
  2.8000e-10    1.564e-04    7.831e-05  
  2.8050e-10    1.564e-04    7.831e-05  
  2.8100e-10    1.564e-04    7.831e-05  
  2.8150e-10    1.564e-04    7.831e-05  
  2.8200e-10    1.564e-04    7.831e-05  
  2.8250e-10    1.564e-04    7.831e-05  
  2.8300e-10    1.564e-04    7.831e-05  
  2.8350e-10    1.564e-04    7.831e-05  
  2.8400e-10    1.564e-04    7.831e-05  
  2.8450e-10    1.564e-04    7.831e-05  
  2.8500e-10    1.564e-04    7.831e-05  
  2.8550e-10    1.564e-04    7.831e-05  
  2.8600e-10    1.564e-04    7.831e-05  
  2.8650e-10    1.564e-04    7.831e-05  
  2.8700e-10    1.564e-04    7.831e-05  
  2.8750e-10    1.564e-04    7.831e-05  
  2.8800e-10    1.564e-04    7.831e-05  
  2.8850e-10    1.564e-04    7.831e-05  
  2.8900e-10    1.564e-04    7.831e-05  
  2.8950e-10    1.564e-04    7.831e-05  
  2.9000e-10    1.564e-04    7.831e-05  
  2.9050e-10    1.564e-04    7.831e-05  
  2.9100e-10    1.564e-04    7.831e-05  
  2.9150e-10    1.564e-04    7.831e-05  
  2.9200e-10    1.564e-04    7.831e-05  
  2.9250e-10    1.564e-04    7.831e-05  
  2.9300e-10    1.564e-04    7.831e-05  
  2.9350e-10    1.564e-04    7.831e-05  
  2.9400e-10    1.564e-04    7.831e-05  
  2.9450e-10    1.564e-04    7.831e-05  
  2.9500e-10    1.564e-04    7.831e-05  
  2.9550e-10    1.564e-04    7.831e-05  
  2.9600e-10    1.564e-04    7.831e-05  
  2.9650e-10    1.564e-04    7.831e-05  
  2.9700e-10    1.564e-04    7.831e-05  
  2.9750e-10    1.564e-04    7.831e-05  
  2.9800e-10    1.564e-04    7.831e-05  
  2.9850e-10    1.564e-04    7.831e-05  
  2.9900e-10    1.564e-04    7.831e-05  
  2.9950e-10    1.564e-04    7.831e-05  
  3.0000e-10    1.564e-04    7.831e-05  
  3.0050e-10    1.564e-04    7.831e-05  
  3.0100e-10    1.564e-04    7.831e-05  
  3.0150e-10    1.564e-04    7.831e-05  
  3.0200e-10    1.564e-04    7.831e-05  
  3.0250e-10    1.564e-04    7.831e-05  
  3.0300e-10    1.564e-04    7.831e-05  
  3.0350e-10    1.564e-04    7.831e-05  
  3.0400e-10    1.564e-04    7.831e-05  
  3.0450e-10    1.564e-04    7.831e-05  
  3.0500e-10    1.564e-04    7.831e-05  
  3.0550e-10    1.564e-04    7.831e-05  
  3.0600e-10    1.564e-04    7.831e-05  
  3.0650e-10    1.564e-04    7.831e-05  
  3.0700e-10    1.564e-04    7.831e-05  
  3.0750e-10    1.564e-04    7.831e-05  
  3.0800e-10    1.564e-04    7.831e-05  
  3.0850e-10    1.564e-04    7.831e-05  
  3.0900e-10    1.564e-04    7.831e-05  
  3.0950e-10    1.564e-04    7.831e-05  
  3.1000e-10    1.564e-04    7.831e-05  
  3.1050e-10    1.564e-04    7.831e-05  
  3.1100e-10    1.564e-04    7.831e-05  
  3.1150e-10    1.564e-04    7.831e-05  
  3.1200e-10    1.564e-04    7.831e-05  
  3.1250e-10    1.564e-04    7.831e-05  
  3.1300e-10    1.564e-04    7.831e-05  
  3.1350e-10    1.564e-04    7.831e-05  
  3.1400e-10    1.564e-04    7.831e-05  
  3.1450e-10    1.564e-04    7.831e-05  
  3.1500e-10    1.564e-04    7.831e-05  
  3.1550e-10    1.564e-04    7.831e-05  
  3.1600e-10    1.564e-04    7.831e-05  
  3.1650e-10    1.564e-04    7.831e-05  
  3.1700e-10    1.564e-04    7.831e-05  
  3.1750e-10    1.564e-04    7.831e-05  
  3.1800e-10    1.564e-04    7.831e-05  
  3.1850e-10    1.564e-04    7.831e-05  
  3.1900e-10    1.564e-04    7.831e-05  
  3.1950e-10    1.564e-04    7.831e-05  
  3.2000e-10    1.564e-04    7.831e-05  
  3.2050e-10    1.564e-04    7.831e-05  
  3.2100e-10    1.564e-04    7.831e-05  
  3.2150e-10    1.564e-04    7.831e-05  
  3.2200e-10    1.564e-04    7.831e-05  
  3.2250e-10    1.564e-04    7.831e-05  
  3.2300e-10    1.564e-04    7.831e-05  
  3.2350e-10    1.564e-04    7.831e-05  
  3.2400e-10    1.564e-04    7.831e-05  
  3.2450e-10    1.564e-04    7.831e-05  
  3.2500e-10    1.564e-04    7.831e-05  
  3.2550e-10    1.564e-04    7.831e-05  
  3.2600e-10    1.564e-04    7.831e-05  
  3.2650e-10    1.564e-04    7.831e-05  
  3.2700e-10    1.564e-04    7.831e-05  
  3.2750e-10    1.564e-04    7.831e-05  
  3.2800e-10    1.564e-04    7.831e-05  
  3.2850e-10    1.564e-04    7.831e-05  
  3.2900e-10    1.564e-04    7.831e-05  
  3.2950e-10    1.564e-04    7.831e-05  
  3.3000e-10    1.564e-04    7.831e-05  
  3.3050e-10    1.564e-04    7.831e-05  
  3.3100e-10    1.564e-04    7.831e-05  
  3.3150e-10    1.564e-04    7.831e-05  
  3.3200e-10    1.564e-04    7.831e-05  
  3.3250e-10    1.564e-04    7.831e-05  
  3.3300e-10    1.564e-04    7.831e-05  
  3.3350e-10    1.564e-04    7.831e-05  
  3.3400e-10    1.564e-04    7.831e-05  
  3.3450e-10    1.564e-04    7.831e-05  
  3.3500e-10    1.564e-04    7.831e-05  
  3.3550e-10    1.564e-04    7.831e-05  
  3.3600e-10    1.564e-04    7.831e-05  
  3.3650e-10    1.564e-04    7.831e-05  
  3.3700e-10    1.564e-04    7.831e-05  
  3.3750e-10    1.564e-04    7.831e-05  
  3.3800e-10    1.564e-04    7.831e-05  
  3.3850e-10    1.564e-04    7.831e-05  
  3.3900e-10    1.564e-04    7.831e-05  
  3.3950e-10    1.564e-04    7.831e-05  
  3.4000e-10    1.564e-04    7.831e-05  
  3.4050e-10    1.564e-04    7.831e-05  
  3.4100e-10    1.564e-04    7.831e-05  
  3.4150e-10    1.564e-04    7.831e-05  
  3.4200e-10    1.564e-04    7.831e-05  
  3.4250e-10    1.564e-04    7.831e-05  
  3.4300e-10    1.564e-04    7.831e-05  
  3.4350e-10    1.564e-04    7.831e-05  
  3.4400e-10    1.564e-04    7.831e-05  
  3.4450e-10    1.564e-04    7.831e-05  
  3.4500e-10    1.564e-04    7.831e-05  
  3.4550e-10    1.564e-04    7.831e-05  
  3.4600e-10    1.564e-04    7.831e-05  
  3.4650e-10    1.564e-04    7.831e-05  
  3.4700e-10    1.564e-04    7.831e-05  
  3.4750e-10    1.564e-04    7.831e-05  
  3.4800e-10    1.564e-04    7.831e-05  
  3.4850e-10    1.564e-04    7.831e-05  
  3.4900e-10    1.564e-04    7.831e-05  
  3.4950e-10    1.564e-04    7.831e-05  
  3.5000e-10    1.564e-04    7.831e-05  
  3.5050e-10    1.564e-04    7.831e-05  
  3.5100e-10    1.564e-04    7.831e-05  
  3.5150e-10    1.564e-04    7.831e-05  
  3.5200e-10    1.564e-04    7.831e-05  
  3.5250e-10    1.564e-04    7.831e-05  
  3.5300e-10    1.564e-04    7.831e-05  
  3.5350e-10    1.564e-04    7.831e-05  
  3.5400e-10    1.564e-04    7.831e-05  
  3.5450e-10    1.564e-04    7.831e-05  
  3.5500e-10    1.564e-04    7.831e-05  
  3.5550e-10    1.564e-04    7.831e-05  
  3.5600e-10    1.564e-04    7.831e-05  
  3.5650e-10    1.564e-04    7.831e-05  
  3.5700e-10    1.564e-04    7.831e-05  
  3.5750e-10    1.564e-04    7.831e-05  
  3.5800e-10    1.564e-04    7.831e-05  
  3.5850e-10    1.564e-04    7.831e-05  
  3.5900e-10    1.564e-04    7.831e-05  
  3.5950e-10    1.564e-04    7.831e-05  
  3.6000e-10    1.564e-04    7.831e-05  
  3.6050e-10    1.564e-04    7.831e-05  
  3.6100e-10    1.564e-04    7.831e-05  
  3.6150e-10    1.564e-04    7.831e-05  
  3.6200e-10    1.564e-04    7.831e-05  
  3.6250e-10    1.564e-04    7.831e-05  
  3.6300e-10    1.564e-04    7.831e-05  
  3.6350e-10    1.564e-04    7.831e-05  
  3.6400e-10    1.564e-04    7.831e-05  
  3.6450e-10    1.564e-04    7.831e-05  
  3.6500e-10    1.564e-04    7.831e-05  
  3.6550e-10    1.564e-04    7.831e-05  
  3.6600e-10    1.564e-04    7.831e-05  
  3.6650e-10    1.564e-04    7.831e-05  
  3.6700e-10    1.564e-04    7.831e-05  
  3.6750e-10    1.564e-04    7.831e-05  
  3.6800e-10    1.564e-04    7.831e-05  
  3.6850e-10    1.564e-04    7.831e-05  
  3.6900e-10    1.564e-04    7.831e-05  
  3.6950e-10    1.564e-04    7.831e-05  
  3.7000e-10    1.564e-04    7.831e-05  
  3.7050e-10    1.564e-04    7.831e-05  
  3.7100e-10    1.564e-04    7.831e-05  
  3.7150e-10    1.564e-04    7.831e-05  
  3.7200e-10    1.564e-04    7.831e-05  
  3.7250e-10    1.564e-04    7.831e-05  
  3.7300e-10    1.564e-04    7.831e-05  
  3.7350e-10    1.564e-04    7.831e-05  
  3.7400e-10    1.564e-04    7.831e-05  
  3.7450e-10    1.564e-04    7.831e-05  
  3.7500e-10    1.564e-04    7.831e-05  
  3.7550e-10    1.564e-04    7.831e-05  
  3.7600e-10    1.564e-04    7.831e-05  
  3.7650e-10    1.564e-04    7.831e-05  
  3.7700e-10    1.564e-04    7.831e-05  
  3.7750e-10    1.564e-04    7.831e-05  
  3.7800e-10    1.564e-04    7.831e-05  
  3.7850e-10    1.564e-04    7.831e-05  
  3.7900e-10    1.564e-04    7.831e-05  
  3.7950e-10    1.564e-04    7.831e-05  
  3.8000e-10    1.564e-04    7.831e-05  
  3.8050e-10    1.564e-04    7.831e-05  
  3.8100e-10    1.564e-04    7.831e-05  
  3.8150e-10    1.564e-04    7.831e-05  
  3.8200e-10    1.564e-04    7.831e-05  
  3.8250e-10    1.564e-04    7.831e-05  
  3.8300e-10    1.564e-04    7.831e-05  
  3.8350e-10    1.564e-04    7.831e-05  
  3.8400e-10    1.564e-04    7.831e-05  
  3.8450e-10    1.564e-04    7.831e-05  
  3.8500e-10    1.564e-04    7.831e-05  
  3.8550e-10    1.564e-04    7.831e-05  
  3.8600e-10    1.564e-04    7.831e-05  
  3.8650e-10    1.564e-04    7.831e-05  
  3.8700e-10    1.564e-04    7.831e-05  
  3.8750e-10    1.564e-04    7.831e-05  
  3.8800e-10    1.564e-04    7.831e-05  
  3.8850e-10    1.564e-04    7.831e-05  
  3.8900e-10    1.564e-04    7.831e-05  
  3.8950e-10    1.564e-04    7.831e-05  
  3.9000e-10    1.564e-04    7.831e-05  
  3.9050e-10    1.564e-04    7.831e-05  
  3.9100e-10    1.564e-04    7.831e-05  
  3.9150e-10    1.564e-04    7.831e-05  
  3.9200e-10    1.564e-04    7.831e-05  
  3.9250e-10    1.564e-04    7.831e-05  
  3.9300e-10    1.564e-04    7.831e-05  
  3.9350e-10    1.564e-04    7.831e-05  
  3.9400e-10    1.564e-04    7.831e-05  
  3.9450e-10    1.564e-04    7.831e-05  
  3.9500e-10    1.564e-04    7.831e-05  
  3.9550e-10    1.564e-04    7.831e-05  
  3.9600e-10    1.564e-04    7.831e-05  
  3.9650e-10    1.564e-04    7.831e-05  
  3.9700e-10    1.564e-04    7.831e-05  
  3.9750e-10    1.564e-04    7.831e-05  
  3.9800e-10    1.564e-04    7.831e-05  
  3.9850e-10    1.564e-04    7.831e-05  
  3.9900e-10    1.564e-04    7.831e-05  
  3.9950e-10    1.564e-04    7.831e-05  
  4.0000e-10    1.564e-04    7.831e-05  
  4.0050e-10    1.564e-04    7.831e-05  
  4.0100e-10    1.564e-04    7.831e-05  
  4.0150e-10    1.564e-04    7.831e-05  
  4.0200e-10    1.564e-04    7.831e-05  
  4.0250e-10    1.564e-04    7.831e-05  
  4.0300e-10    1.564e-04    7.831e-05  
  4.0350e-10    1.564e-04    7.831e-05  
  4.0400e-10    1.564e-04    7.831e-05  
  4.0450e-10    1.564e-04    7.831e-05  
  4.0500e-10    1.564e-04    7.831e-05  
  4.0550e-10    1.564e-04    7.831e-05  
  4.0600e-10    1.564e-04    7.831e-05  
  4.0650e-10    1.564e-04    7.831e-05  
  4.0700e-10    1.564e-04    7.831e-05  
  4.0750e-10    1.564e-04    7.831e-05  
  4.0800e-10    1.564e-04    7.831e-05  
  4.0850e-10    1.564e-04    7.831e-05  
  4.0900e-10    1.564e-04    7.831e-05  
  4.0950e-10    1.564e-04    7.831e-05  
  4.1000e-10    1.564e-04    7.831e-05  
  4.1050e-10    1.564e-04    7.831e-05  
  4.1100e-10    1.564e-04    7.831e-05  
  4.1150e-10    1.564e-04    7.831e-05  
  4.1200e-10    1.564e-04    7.831e-05  
  4.1250e-10    1.564e-04    7.831e-05  
  4.1300e-10    1.564e-04    7.831e-05  
  4.1350e-10    1.564e-04    7.831e-05  
  4.1400e-10    1.564e-04    7.831e-05  
  4.1450e-10    1.564e-04    7.831e-05  
  4.1500e-10    1.564e-04    7.831e-05  
  4.1550e-10    1.564e-04    7.831e-05  
  4.1600e-10    1.564e-04    7.831e-05  
  4.1650e-10    1.564e-04    7.831e-05  
  4.1700e-10    1.564e-04    7.831e-05  
  4.1750e-10    1.564e-04    7.831e-05  
  4.1800e-10    1.564e-04    7.831e-05  
  4.1850e-10    1.564e-04    7.831e-05  
  4.1900e-10    1.564e-04    7.831e-05  
  4.1950e-10    1.564e-04    7.831e-05  
  4.2000e-10    1.564e-04    7.831e-05  
  4.2050e-10    1.564e-04    7.831e-05  
  4.2100e-10    1.564e-04    7.831e-05  
  4.2150e-10    1.564e-04    7.831e-05  
  4.2200e-10    1.564e-04    7.831e-05  
  4.2250e-10    1.564e-04    7.831e-05  
  4.2300e-10    1.564e-04    7.831e-05  
  4.2350e-10    1.564e-04    7.831e-05  
  4.2400e-10    1.564e-04    7.831e-05  
  4.2450e-10    1.564e-04    7.831e-05  
  4.2500e-10    1.564e-04    7.831e-05  
  4.2550e-10    1.564e-04    7.831e-05  
  4.2600e-10    1.564e-04    7.831e-05  
  4.2650e-10    1.564e-04    7.831e-05  
  4.2700e-10    1.564e-04    7.831e-05  
  4.2750e-10    1.564e-04    7.831e-05  
  4.2800e-10    1.564e-04    7.831e-05  
  4.2850e-10    1.564e-04    7.831e-05  
  4.2900e-10    1.564e-04    7.831e-05  
  4.2950e-10    1.564e-04    7.831e-05  
  4.3000e-10    1.564e-04    7.831e-05  
  4.3050e-10    1.564e-04    7.831e-05  
  4.3100e-10    1.564e-04    7.831e-05  
  4.3150e-10    1.564e-04    7.831e-05  
  4.3200e-10    1.564e-04    7.831e-05  
  4.3250e-10    1.564e-04    7.831e-05  
  4.3300e-10    1.564e-04    7.831e-05  
  4.3350e-10    1.564e-04    7.831e-05  
  4.3400e-10    1.564e-04    7.831e-05  
  4.3450e-10    1.564e-04    7.831e-05  
  4.3500e-10    1.564e-04    7.831e-05  
  4.3550e-10    1.564e-04    7.831e-05  
  4.3600e-10    1.564e-04    7.831e-05  
  4.3650e-10    1.564e-04    7.831e-05  
  4.3700e-10    1.564e-04    7.831e-05  
  4.3750e-10    1.564e-04    7.831e-05  
  4.3800e-10    1.564e-04    7.831e-05  
  4.3850e-10    1.564e-04    7.831e-05  
  4.3900e-10    1.564e-04    7.831e-05  
  4.3950e-10    1.564e-04    7.831e-05  
  4.4000e-10    1.564e-04    7.831e-05  
  4.4050e-10    1.564e-04    7.831e-05  
  4.4100e-10    1.564e-04    7.831e-05  
  4.4150e-10    1.564e-04    7.831e-05  
  4.4200e-10    1.564e-04    7.831e-05  
  4.4250e-10    1.564e-04    7.831e-05  
  4.4300e-10    1.564e-04    7.831e-05  
  4.4350e-10    1.564e-04    7.831e-05  
  4.4400e-10    1.564e-04    7.831e-05  
  4.4450e-10    1.564e-04    7.831e-05  
  4.4500e-10    1.564e-04    7.831e-05  
  4.4550e-10    1.564e-04    7.831e-05  
  4.4600e-10    1.564e-04    7.831e-05  
  4.4650e-10    1.564e-04    7.831e-05  
  4.4700e-10    1.564e-04    7.831e-05  
  4.4750e-10    1.564e-04    7.831e-05  
  4.4800e-10    1.564e-04    7.831e-05  
  4.4850e-10    1.564e-04    7.831e-05  
  4.4900e-10    1.564e-04    7.831e-05  
  4.4950e-10    1.564e-04    7.831e-05  
  4.5000e-10    1.564e-04    7.831e-05  
  4.5050e-10    1.564e-04    7.831e-05  
  4.5100e-10    1.564e-04    7.831e-05  
  4.5150e-10    1.564e-04    7.831e-05  
  4.5200e-10    1.564e-04    7.831e-05  
  4.5250e-10    1.564e-04    7.831e-05  
  4.5300e-10    1.564e-04    7.831e-05  
  4.5350e-10    1.564e-04    7.831e-05  
  4.5400e-10    1.564e-04    7.831e-05  
  4.5450e-10    1.564e-04    7.831e-05  
  4.5500e-10    1.564e-04    7.831e-05  
  4.5550e-10    1.564e-04    7.831e-05  
  4.5600e-10    1.564e-04    7.831e-05  
  4.5650e-10    1.564e-04    7.831e-05  
  4.5700e-10    1.564e-04    7.831e-05  
  4.5750e-10    1.564e-04    7.831e-05  
  4.5800e-10    1.564e-04    7.831e-05  
  4.5850e-10    1.564e-04    7.831e-05  
  4.5900e-10    1.564e-04    7.831e-05  
  4.5950e-10    1.564e-04    7.831e-05  
  4.6000e-10    1.564e-04    7.831e-05  
  4.6050e-10    1.564e-04    7.831e-05  
  4.6100e-10    1.564e-04    7.831e-05  
  4.6150e-10    1.564e-04    7.831e-05  
  4.6200e-10    1.564e-04    7.831e-05  
  4.6250e-10    1.564e-04    7.831e-05  
  4.6300e-10    1.564e-04    7.831e-05  
  4.6350e-10    1.564e-04    7.831e-05  
  4.6400e-10    1.564e-04    7.831e-05  
  4.6450e-10    1.564e-04    7.831e-05  
  4.6500e-10    1.564e-04    7.831e-05  
  4.6550e-10    1.564e-04    7.831e-05  
  4.6600e-10    1.564e-04    7.831e-05  
  4.6650e-10    1.564e-04    7.831e-05  
  4.6700e-10    1.564e-04    7.831e-05  
  4.6750e-10    1.564e-04    7.831e-05  
  4.6800e-10    1.564e-04    7.831e-05  
  4.6850e-10    1.564e-04    7.831e-05  
  4.6900e-10    1.564e-04    7.831e-05  
  4.6950e-10    1.564e-04    7.831e-05  
  4.7000e-10    1.564e-04    7.831e-05  
  4.7050e-10    1.564e-04    7.831e-05  
  4.7100e-10    1.564e-04    7.831e-05  
  4.7150e-10    1.564e-04    7.831e-05  
  4.7200e-10    1.564e-04    7.831e-05  
  4.7250e-10    1.564e-04    7.831e-05  
  4.7300e-10    1.564e-04    7.831e-05  
  4.7350e-10    1.564e-04    7.831e-05  
  4.7400e-10    1.564e-04    7.831e-05  
  4.7450e-10    1.564e-04    7.831e-05  
  4.7500e-10    1.564e-04    7.831e-05  
  4.7550e-10    1.564e-04    7.831e-05  
  4.7600e-10    1.564e-04    7.831e-05  
  4.7650e-10    1.564e-04    7.831e-05  
  4.7700e-10    1.564e-04    7.831e-05  
  4.7750e-10    1.564e-04    7.831e-05  
  4.7800e-10    1.564e-04    7.831e-05  
  4.7850e-10    1.564e-04    7.831e-05  
  4.7900e-10    1.564e-04    7.831e-05  
  4.7950e-10    1.564e-04    7.831e-05  
  4.8000e-10    1.564e-04    7.831e-05  
  4.8050e-10    1.564e-04    7.831e-05  
  4.8100e-10    1.564e-04    7.831e-05  
  4.8150e-10    1.564e-04    7.831e-05  
  4.8200e-10    1.564e-04    7.831e-05  
  4.8250e-10    1.564e-04    7.831e-05  
  4.8300e-10    1.564e-04    7.831e-05  
  4.8350e-10    1.564e-04    7.831e-05  
  4.8400e-10    1.564e-04    7.831e-05  
  4.8450e-10    1.564e-04    7.831e-05  
  4.8500e-10    1.564e-04    7.831e-05  
  4.8550e-10    1.564e-04    7.831e-05  
  4.8600e-10    1.564e-04    7.831e-05  
  4.8650e-10    1.564e-04    7.831e-05  
  4.8700e-10    1.564e-04    7.831e-05  
  4.8750e-10    1.564e-04    7.831e-05  
  4.8800e-10    1.564e-04    7.831e-05  
  4.8850e-10    1.564e-04    7.831e-05  
  4.8900e-10    1.564e-04    7.831e-05  
  4.8950e-10    1.564e-04    7.831e-05  
  4.9000e-10    1.564e-04    7.831e-05  
  4.9050e-10    1.564e-04    7.831e-05  
  4.9100e-10    1.564e-04    7.831e-05  
  4.9150e-10    1.564e-04    7.831e-05  
  4.9200e-10    1.564e-04    7.831e-05  
  4.9250e-10    1.564e-04    7.831e-05  
  4.9300e-10    1.564e-04    7.831e-05  
  4.9350e-10    1.564e-04    7.831e-05  
  4.9400e-10    1.564e-04    7.831e-05  
  4.9450e-10    1.564e-04    7.831e-05  
  4.9500e-10    1.564e-04    7.831e-05  
  4.9550e-10    1.564e-04    7.831e-05  
  4.9600e-10    1.564e-04    7.831e-05  
  4.9650e-10    1.564e-04    7.831e-05  
  4.9700e-10    1.564e-04    7.831e-05  
  4.9750e-10    1.564e-04    7.831e-05  
  4.9800e-10    1.564e-04    7.831e-05  
  4.9850e-10    1.564e-04    7.831e-05  
  4.9900e-10    1.564e-04    7.831e-05  
  4.9950e-10    1.564e-04    7.831e-05  
  5.0000e-10    1.564e-04    7.831e-05  
  5.0050e-10    1.564e-04    7.831e-05  
  5.0100e-10    1.564e-04    7.831e-05  
  5.0150e-10    1.564e-04    7.831e-05  
  5.0200e-10    1.564e-04    7.831e-05  
  5.0250e-10    1.564e-04    7.831e-05  
  5.0300e-10    1.564e-04    7.831e-05  
  5.0350e-10    1.564e-04    7.831e-05  
  5.0400e-10    1.564e-04    7.831e-05  
  5.0450e-10    1.564e-04    7.831e-05  
  5.0500e-10    1.564e-04    7.831e-05  
  5.0550e-10    1.564e-04    7.831e-05  
  5.0600e-10    1.564e-04    7.831e-05  
  5.0650e-10    1.564e-04    7.831e-05  
  5.0700e-10    1.564e-04    7.831e-05  
  5.0750e-10    1.564e-04    7.831e-05  
  5.0800e-10    1.564e-04    7.831e-05  
  5.0850e-10    1.564e-04    7.831e-05  
  5.0900e-10    1.564e-04    7.831e-05  
  5.0950e-10    1.564e-04    7.831e-05  
  5.1000e-10    1.564e-04    7.831e-05  
  5.1050e-10    1.564e-04    7.831e-05  
  5.1100e-10    1.564e-04    7.831e-05  
  5.1150e-10    1.564e-04    7.831e-05  
  5.1200e-10    1.564e-04    7.831e-05  
  5.1250e-10    1.564e-04    7.831e-05  
  5.1300e-10    1.564e-04    7.831e-05  
  5.1350e-10    1.564e-04    7.831e-05  
  5.1400e-10    1.564e-04    7.831e-05  
  5.1450e-10    1.564e-04    7.831e-05  
  5.1500e-10    1.564e-04    7.831e-05  
  5.1550e-10    1.564e-04    7.831e-05  
  5.1600e-10    1.564e-04    7.831e-05  
  5.1650e-10    1.564e-04    7.831e-05  
  5.1700e-10    1.564e-04    7.831e-05  
  5.1750e-10    1.564e-04    7.831e-05  
  5.1800e-10    1.564e-04    7.831e-05  
  5.1850e-10    1.564e-04    7.831e-05  
  5.1900e-10    1.564e-04    7.831e-05  
  5.1950e-10    1.564e-04    7.831e-05  
  5.2000e-10    1.564e-04    7.831e-05  
  5.2050e-10    1.564e-04    7.831e-05  
  5.2100e-10    1.564e-04    7.831e-05  
  5.2150e-10    1.564e-04    7.831e-05  
  5.2200e-10    1.564e-04    7.831e-05  
  5.2250e-10    1.564e-04    7.831e-05  
  5.2300e-10    1.564e-04    7.831e-05  
  5.2350e-10    1.564e-04    7.831e-05  
  5.2400e-10    1.564e-04    7.831e-05  
  5.2450e-10    1.564e-04    7.831e-05  
  5.2500e-10    1.564e-04    7.831e-05  
  5.2550e-10    1.564e-04    7.831e-05  
  5.2600e-10    1.564e-04    7.831e-05  
  5.2650e-10    1.564e-04    7.831e-05  
  5.2700e-10    1.564e-04    7.831e-05  
  5.2750e-10    1.564e-04    7.831e-05  
  5.2800e-10    1.564e-04    7.831e-05  
  5.2850e-10    1.564e-04    7.831e-05  
  5.2900e-10    1.564e-04    7.831e-05  
  5.2950e-10    1.564e-04    7.831e-05  
  5.3000e-10    1.564e-04    7.831e-05  
  5.3050e-10    1.564e-04    7.831e-05  
  5.3100e-10    1.564e-04    7.831e-05  
  5.3150e-10    1.564e-04    7.831e-05  
  5.3200e-10    1.564e-04    7.831e-05  
  5.3250e-10    1.564e-04    7.831e-05  
  5.3300e-10    1.564e-04    7.831e-05  
  5.3350e-10    1.564e-04    7.831e-05  
  5.3400e-10    1.564e-04    7.831e-05  
  5.3450e-10    1.564e-04    7.831e-05  
  5.3500e-10    1.564e-04    7.831e-05  
  5.3550e-10    1.564e-04    7.831e-05  
  5.3600e-10    1.564e-04    7.831e-05  
  5.3650e-10    1.564e-04    7.831e-05  
  5.3700e-10    1.564e-04    7.831e-05  
  5.3750e-10    1.564e-04    7.831e-05  
  5.3800e-10    1.564e-04    7.831e-05  
  5.3850e-10    1.564e-04    7.831e-05  
  5.3900e-10    1.564e-04    7.831e-05  
  5.3950e-10    1.564e-04    7.831e-05  
  5.4000e-10    1.564e-04    7.831e-05  
  5.4050e-10    1.564e-04    7.831e-05  
  5.4100e-10    1.564e-04    7.831e-05  
  5.4150e-10    1.564e-04    7.831e-05  
  5.4200e-10    1.564e-04    7.831e-05  
  5.4250e-10    1.564e-04    7.831e-05  
  5.4300e-10    1.564e-04    7.831e-05  
  5.4350e-10    1.564e-04    7.831e-05  
  5.4400e-10    1.564e-04    7.831e-05  
  5.4450e-10    1.564e-04    7.831e-05  
  5.4500e-10    1.564e-04    7.831e-05  
  5.4550e-10    1.564e-04    7.831e-05  
  5.4600e-10    1.564e-04    7.831e-05  
  5.4650e-10    1.564e-04    7.831e-05  
  5.4700e-10    1.564e-04    7.831e-05  
  5.4750e-10    1.564e-04    7.831e-05  
  5.4800e-10    1.564e-04    7.831e-05  
  5.4850e-10    1.564e-04    7.831e-05  
  5.4900e-10    1.564e-04    7.831e-05  
  5.4950e-10    1.564e-04    7.831e-05  
  5.5050e-10    1.564e-04    7.831e-05  
  5.5100e-10    6.483e-04    2.185e-04  
  5.5150e-10    1.406e-03    4.719e-04  
  5.5200e-10    1.901e-03    7.973e-04  
  5.5250e-10    2.218e-03    1.009e-03  
  5.5300e-10    2.488e-03    1.146e-03  
  5.5350e-10    2.643e-03    1.255e-03  
  5.5400e-10    2.768e-03    1.363e-03  
  5.5450e-10    2.923e-03    1.400e-03  
  5.5500e-10    3.138e-03    1.508e-03  
  5.5550e-10    3.459e-03    1.655e-03  
  5.5600e-10    3.943e-03    1.832e-03  
  5.5650e-10    4.247e-03    2.043e-03  
  5.5700e-10    3.431e-03    1.929e-03  
  5.5750e-10    9.732e-04    1.138e-03  
  5.5800e-10   -3.157e-03   -6.865e-04  
  5.5850e-10   -8.302e-03   -3.098e-03  
  5.5900e-10   -1.401e-02   -5.812e-03  
  5.5950e-10   -1.991e-02   -8.698e-03  
  5.6000e-10   -2.547e-02   -1.149e-02  
  5.6050e-10   -2.992e-02   -1.393e-02  
  5.6100e-10   -3.188e-02   -1.542e-02  
  5.6150e-10   -2.980e-02   -1.518e-02  
  5.6200e-10   -2.358e-02   -1.292e-02  
  5.6250e-10   -1.339e-02   -8.627e-03  
  5.6300e-10   -3.078e-03   -3.600e-03  
  5.6350e-10    2.025e-03   -1.803e-04  
  5.6400e-10    2.261e-03    1.020e-03  
  5.6450e-10    6.459e-04    8.135e-04  
  5.6500e-10   -1.289e-03   -3.187e-05  
  5.6550e-10   -2.756e-03   -9.136e-04  
  5.6600e-10   -3.721e-03   -1.510e-03  
  5.6650e-10   -4.279e-03   -1.899e-03  
  5.6700e-10   -4.552e-03   -2.112e-03  
  5.6750e-10   -4.668e-03   -2.256e-03  
  5.6800e-10   -4.757e-03   -2.366e-03  
  5.6850e-10   -4.913e-03   -2.496e-03  
  5.6900e-10   -5.061e-03   -2.636e-03  
  5.6950e-10   -5.158e-03   -2.711e-03  
  5.7000e-10   -5.132e-03   -2.748e-03  
  5.7050e-10   -5.031e-03   -2.726e-03  
  5.7100e-10   -4.776e-03   -2.600e-03  
  5.7150e-10   -4.471e-03   -2.443e-03  
  5.7200e-10   -4.082e-03   -2.244e-03  
  5.7250e-10   -3.721e-03   -2.041e-03  
  5.7300e-10   -3.312e-03   -1.823e-03  
  5.7350e-10   -2.943e-03   -1.612e-03  
  5.7400e-10   -2.573e-03   -1.434e-03  
  5.7450e-10   -2.249e-03   -1.232e-03  
  5.7500e-10   -1.939e-03   -1.082e-03  
  5.7550e-10   -1.682e-03   -9.367e-04  
  5.7600e-10   -1.436e-03   -8.011e-04  
  5.7650e-10   -1.230e-03   -7.032e-04  
  5.7700e-10   -1.059e-03   -5.636e-04  
  5.7750e-10   -8.874e-04   -4.985e-04  
  5.7800e-10   -7.610e-04   -4.294e-04  
  5.7850e-10   -6.343e-04   -3.489e-04  
  5.7900e-10   -5.356e-04   -3.073e-04  
  5.7950e-10   -4.662e-04   -2.380e-04  
  5.8000e-10   -3.794e-04   -2.180e-04  
  5.8050e-10   -3.289e-04   -1.840e-04  
  5.8100e-10   -2.824e-04   -1.510e-04  
  5.8150e-10   -2.294e-04   -1.246e-04  
  5.8200e-10   -2.043e-04   -1.055e-04  
  5.8250e-10   -1.721e-04   -8.805e-05  
  5.8300e-10   -1.463e-04   -7.540e-05  
  5.8350e-10   -1.161e-04   -6.459e-05  
  5.8400e-10   -9.881e-05   -5.241e-05  
  5.8450e-10   -8.728e-05   -4.527e-05  
  5.8500e-10   -5.605e-05   -3.176e-05  
  5.8550e-10   -4.872e-05   -2.736e-05  
  5.8600e-10   -4.522e-05   -2.256e-05  
  5.8650e-10   -3.070e-05   -1.812e-05  
  5.8700e-10   -2.610e-05   -1.378e-05  
  5.8750e-10   -1.682e-05   -1.022e-05  
  5.8800e-10   -1.120e-05   -6.486e-06  
  5.8850e-10   -7.192e-06   -4.191e-06  
  5.8900e-10      0.        -1.187e-06  
  5.8950e-10    3.717e-06    1.471e-06  
  5.9000e-10    8.058e-06    2.583e-06  
  5.9050e-10    7.253e-06    4.014e-06  
  5.9100e-10    1.073e-05    5.034e-06  
  5.9150e-10    1.379e-05    5.899e-06  
  5.9200e-10    1.453e-05    7.133e-06  
  5.9250e-10    1.750e-05    8.218e-06  
  5.9300e-10    1.799e-05    8.704e-06  
  5.9350e-10    1.989e-05    9.677e-06  
  5.9400e-10    1.958e-05    9.811e-06  
  5.9450e-10    2.123e-05    1.024e-05  
  5.9500e-10    2.117e-05    1.057e-05  
  5.9550e-10    2.283e-05    1.120e-05  
  5.9600e-10    2.210e-05    1.150e-05  
  5.9650e-10    2.408e-05    1.172e-05  
  5.9700e-10    2.373e-05    1.185e-05  
  5.9750e-10    2.330e-05    1.169e-05  
  5.9800e-10    2.444e-05    1.212e-05  
  5.9850e-10    2.252e-05    1.208e-05  
  5.9900e-10    2.532e-05    1.217e-05  
  5.9950e-10    2.507e-05    1.266e-05  
  6.0050e-10    2.829e-05    1.382e-05  
  6.0100e-10    7.333e-04    5.468e-04  
  6.0150e-10    1.603e-03    1.105e-03  
  6.0200e-10    2.054e-03    1.399e-03  
  6.0250e-10    2.243e-03    1.498e-03  
  6.0300e-10    2.274e-03    1.521e-03  
  6.0350e-10    2.235e-03    1.499e-03  
  6.0400e-10    2.200e-03    1.474e-03  
  6.0450e-10    2.203e-03    1.478e-03  
  6.0500e-10    2.306e-03    1.545e-03  
  6.0550e-10    2.535e-03    1.715e-03  
  6.0600e-10    2.897e-03    1.965e-03  
  6.0650e-10    3.046e-03    2.053e-03  
  6.0700e-10    1.835e-03    1.169e-03  
  6.0750e-10   -1.404e-03   -1.232e-03  
  6.0800e-10   -6.238e-03   -4.626e-03  
  6.0850e-10   -1.164e-02   -8.285e-03  
  6.0900e-10   -1.703e-02   -1.184e-02  
  6.0950e-10   -2.201e-02   -1.505e-02  
  6.1000e-10   -2.641e-02   -1.776e-02  
  6.1050e-10   -3.002e-02   -1.986e-02  
  6.1100e-10   -3.298e-02   -2.137e-02  
  6.1150e-10   -3.530e-02   -2.232e-02  
  6.1200e-10   -3.723e-02   -2.276e-02  
  6.1250e-10   -3.901e-02   -2.270e-02  
  6.1300e-10   -4.097e-02   -2.202e-02  
  6.1350e-10   -4.331e-02   -2.050e-02  
  6.1400e-10   -4.654e-02   -1.803e-02  
  6.1450e-10   -5.099e-02   -1.499e-02  
  6.1500e-10   -5.657e-02   -1.200e-02  
  6.1550e-10   -6.260e-02   -9.631e-03  
  6.1600e-10   -6.849e-02   -7.822e-03  
  6.1650e-10   -7.390e-02   -6.472e-03  
  6.1700e-10   -7.868e-02   -5.419e-03  
  6.1750e-10   -8.282e-02   -4.589e-03  
  6.1800e-10   -8.635e-02   -3.900e-03  
  6.1850e-10   -8.933e-02   -3.303e-03  
  6.1900e-10   -9.183e-02   -2.809e-03  
  6.1950e-10   -9.388e-02   -2.387e-03  
  6.2000e-10   -9.556e-02   -2.030e-03  
  6.2050e-10   -9.692e-02   -1.728e-03  
  6.2100e-10   -9.800e-02   -1.472e-03  
  6.2150e-10   -9.884e-02   -1.253e-03  
  6.2200e-10   -9.948e-02   -1.061e-03  
  6.2250e-10   -9.995e-02   -9.200e-04  
  6.2300e-10     -0.1003    -7.966e-04  
  6.2350e-10     -0.1005    -6.772e-04  
  6.2400e-10     -0.1006    -5.743e-04  
  6.2450e-10     -0.1006    -4.711e-04  
  6.2500e-10     -0.1005    -4.193e-04  
  6.2550e-10     -0.1004    -3.546e-04  
  6.2600e-10     -0.1002    -3.065e-04  
  6.2650e-10     -0.1000    -2.626e-04  
  6.2700e-10   -9.973e-02   -2.223e-04  
  6.2750e-10   -9.946e-02   -1.949e-04  
  6.2800e-10   -9.916e-02   -1.632e-04  
  6.2850e-10   -9.885e-02   -1.416e-04  
  6.2900e-10   -9.851e-02   -1.261e-04  
  6.2950e-10   -9.818e-02   -1.078e-04  
  6.3000e-10   -9.782e-02   -9.411e-05  
  6.3050e-10   -9.747e-02   -8.187e-05  
  6.3100e-10   -9.710e-02   -6.400e-05  
  6.3150e-10   -9.673e-02   -5.677e-05  
  6.3200e-10   -9.633e-02   -5.540e-05  
  6.3250e-10   -9.591e-02   -4.788e-05  
  6.3300e-10   -9.546e-02   -4.654e-05  
  6.3350e-10   -9.493e-02   -4.502e-05  
  6.3400e-10   -9.433e-02   -4.107e-05  
  6.3450e-10   -9.359e-02   -3.999e-05  
  6.3500e-10   -9.272e-02   -3.389e-05  
  6.3550e-10   -9.162e-02   -3.768e-05  
  6.3600e-10   -9.032e-02   -1.548e-05  
  6.3650e-10   -8.872e-02   -3.791e-06  
  6.3700e-10   -8.683e-02    8.362e-06  
  6.3750e-10   -8.457e-02    1.475e-05  
  6.3800e-10   -8.193e-02    2.386e-05  
  6.3850e-10   -7.887e-02    1.346e-05  
  6.3900e-10   -7.534e-02    1.312e-05  
  6.3950e-10   -7.125e-02    1.883e-05  
  6.4000e-10   -6.650e-02    2.837e-05  
  6.4050e-10   -6.095e-02    4.171e-05  
  6.4100e-10   -5.439e-02    6.108e-05  
  6.4150e-10   -4.656e-02    6.017e-05  
  6.4200e-10   -3.729e-02    7.756e-05  
  6.4250e-10   -2.624e-02    8.851e-05  
  6.4300e-10   -1.320e-02    9.381e-05  
  6.4350e-10    1.998e-03    9.950e-05  
  6.4400e-10    1.942e-02    1.028e-04  
  6.4450e-10    3.903e-02    1.059e-04  
  6.4500e-10    6.075e-02    1.079e-04  
  6.4550e-10    8.442e-02    1.087e-04  
  6.4600e-10      0.1099     1.095e-04  
  6.4650e-10      0.1373     1.091e-04  
  6.4700e-10      0.1664     1.055e-04  
  6.4750e-10      0.1971     1.018e-04  
  6.4800e-10      0.2289     9.942e-05  
  6.4850e-10      0.2614     1.088e-04  
  6.4900e-10      0.2941     9.150e-05  
  6.4950e-10      0.3263     8.887e-05  
  6.5000e-10      0.3574     9.310e-05  
  6.5050e-10      0.3869     8.241e-05  
  6.5100e-10      0.4143     7.234e-05  
  6.5150e-10      0.4393     6.731e-05  
  6.5200e-10      0.4616     6.165e-05  
  6.5250e-10      0.4814     5.652e-05  
  6.5300e-10      0.4986     5.339e-05  
  6.5350e-10      0.5137     5.198e-05  
  6.5400e-10      0.5267     4.929e-05  
  6.5450e-10      0.5380     4.884e-05  
  6.5500e-10      0.5479     4.888e-05  
  6.5550e-10      0.5565     4.999e-05  
  6.5600e-10      0.5640     4.985e-05  
  6.5650e-10      0.5707     5.239e-05  
  6.5700e-10      0.5766     5.862e-05  
  6.5750e-10      0.5819     5.863e-05  
  6.5800e-10      0.5867     5.942e-05  
  6.5850e-10      0.5910     5.889e-05  
  6.5900e-10      0.5949     5.888e-05  
  6.5950e-10      0.5985     5.883e-05  
  6.6000e-10      0.6018     5.925e-05  
  6.6050e-10      0.6048     5.953e-05  
  6.6100e-10      0.6077     7.749e-05  
  6.6150e-10      0.6103     8.088e-05  
  6.6200e-10      0.6127     7.548e-05  
  6.6250e-10      0.6150     7.636e-05  
  6.6300e-10      0.6172     7.485e-05  
  6.6350e-10      0.6192     7.307e-05  
  6.6400e-10      0.6211     7.188e-05  
  6.6450e-10      0.6230     6.823e-05  
  6.6500e-10      0.6247     6.753e-05  
  6.6550e-10      0.6264     6.524e-05  
  6.6600e-10      0.6279     6.538e-05  
  6.6650e-10      0.6295     6.303e-05  
  6.6700e-10      0.6309     6.134e-05  
  6.6750e-10      0.6323     5.639e-05  
  6.6800e-10      0.6336     5.410e-05  
  6.6850e-10      0.6349     5.145e-05  
  6.6900e-10      0.6361     4.876e-05  
  6.6950e-10      0.6373     4.764e-05  
  6.7000e-10      0.6385     4.320e-05  
  6.7050e-10      0.6396     4.082e-05  
  6.7100e-10      0.6406     3.994e-05  
  6.7150e-10      0.6417     3.660e-05  
  6.7200e-10      0.6427     3.558e-05  
  6.7250e-10      0.6437     3.372e-05  
  6.7300e-10      0.6446     3.216e-05  
  6.7350e-10      0.6455     3.022e-05  
  6.7400e-10      0.6464     3.066e-05  
  6.7450e-10      0.6473     2.790e-05  
  6.7500e-10      0.6481     2.951e-05  
  6.7550e-10      0.6490     3.055e-05  
  6.7600e-10      0.6498     3.022e-05  
  6.7650e-10      0.6505     2.884e-05  
  6.7700e-10      0.6513     2.990e-05  
  6.7750e-10      0.6520     2.886e-05  
  6.7800e-10      0.6528     2.967e-05  
  6.7850e-10      0.6535     3.157e-05  
  6.7900e-10      0.6542     3.248e-05  
  6.7950e-10      0.6549     3.406e-05  
  6.8000e-10      0.6555     3.420e-05  
  6.8050e-10      0.6562     3.881e-05  
  6.8100e-10      0.6569     4.438e-05  
  6.8150e-10      0.6575     5.150e-05  
  6.8200e-10      0.6582     6.327e-05  
  6.8250e-10      0.6588     8.465e-05  
  6.8300e-10      0.6595     1.187e-04  
  6.8350e-10      0.6603     1.295e-04  
  6.8400e-10      0.6610     1.864e-04  
  6.8450e-10      0.6619     2.984e-04  
  6.8500e-10      0.6629     4.100e-04  
  6.8550e-10      0.6640     5.647e-04  
  6.8600e-10      0.6653     7.221e-04  
  6.8650e-10      0.6667     9.275e-04  
  6.8700e-10      0.6683     1.117e-03  
  6.8750e-10      0.6700     1.350e-03  
  6.8800e-10      0.6719     1.552e-03  
  6.8850e-10      0.6739     1.797e-03  
  6.8900e-10      0.6761     2.029e-03  
  6.8950e-10      0.6785     2.280e-03  
  6.9000e-10      0.6810     2.564e-03  
  6.9050e-10      0.6836     2.888e-03  
  6.9100e-10      0.6865     3.270e-03  
  6.9150e-10      0.6895     3.721e-03  
  6.9200e-10      0.6925     4.260e-03  
  6.9250e-10      0.6953     4.947e-03  
  6.9300e-10      0.6974     5.912e-03  
  6.9350e-10      0.6978     7.367e-03  
  6.9400e-10      0.6953     9.697e-03  
  6.9450e-10      0.6878     1.325e-02  
  6.9500e-10      0.6738     1.823e-02  
  6.9550e-10      0.6519     2.456e-02  
  6.9600e-10      0.6219     3.199e-02  
  6.9650e-10      0.5855     4.029e-02  
  6.9700e-10      0.5465     4.929e-02  
  6.9750e-10      0.5101     5.896e-02  
  6.9800e-10      0.4786     6.917e-02  
  6.9850e-10      0.4515     7.968e-02  
  6.9900e-10      0.4278     9.010e-02  
  6.9950e-10      0.4066       0.1001   
  7.0000e-10      0.3874       0.1092   
  7.0050e-10      0.3700       0.1171   
  7.0100e-10      0.3545       0.1233   
  7.0150e-10      0.3411       0.1277   
  7.0200e-10      0.3296       0.1303   
  7.0250e-10      0.3197       0.1315   
  7.0300e-10      0.3109       0.1317   
  7.0350e-10      0.3030       0.1311   
  7.0400e-10      0.2956       0.1301   
  7.0450e-10      0.2887       0.1287   
  7.0500e-10      0.2820       0.1270   
  7.0550e-10      0.2752       0.1251   
  7.0600e-10      0.2683       0.1229   
  7.0650e-10      0.2604       0.1205   
  7.0700e-10      0.2507       0.1173   
  7.0750e-10      0.2386       0.1132   
  7.0800e-10      0.2243       0.1081   
  7.0850e-10      0.2085       0.1020   
  7.0900e-10      0.1921     9.533e-02  
  7.0950e-10      0.1758     8.832e-02  
  7.1000e-10      0.1602     8.129e-02  
  7.1050e-10      0.1454     7.445e-02  
  7.1100e-10      0.1317     6.793e-02  
  7.1150e-10      0.1190     6.178e-02  
  7.1200e-10      0.1074     5.603e-02  
  7.1250e-10    9.680e-02    5.071e-02  
  7.1300e-10    8.716e-02    4.584e-02  
  7.1350e-10    7.843e-02    4.137e-02  
  7.1400e-10    7.050e-02    3.729e-02  
  7.1450e-10    6.335e-02    3.359e-02  
  7.1500e-10    5.689e-02    3.022e-02  
  7.1550e-10    5.108e-02    2.718e-02  
  7.1600e-10    4.583e-02    2.443e-02  
  7.1650e-10    4.114e-02    2.197e-02  
  7.1700e-10    3.691e-02    1.973e-02  
  7.1750e-10    3.314e-02    1.769e-02  
  7.1800e-10    2.971e-02    1.590e-02  
  7.1850e-10    2.666e-02    1.425e-02  
  7.1900e-10    2.391e-02    1.280e-02  
  7.1950e-10    2.141e-02    1.148e-02  
  7.2000e-10    1.924e-02    1.029e-02  
  7.2050e-10    1.722e-02    9.248e-03  
  7.2100e-10    1.548e-02    8.280e-03  
  7.2150e-10    1.385e-02    7.446e-03  
  7.2200e-10    1.244e-02    6.661e-03  
  7.2250e-10    1.120e-02    6.001e-03  
  7.2300e-10    1.006e-02    5.393e-03  
  7.2350e-10    9.053e-03    4.851e-03  
  7.2400e-10    8.147e-03    4.365e-03  
  7.2450e-10    7.325e-03    3.929e-03  
  7.2500e-10    6.599e-03    3.534e-03  
  7.2550e-10    5.935e-03    3.184e-03  
  7.2600e-10    5.344e-03    2.862e-03  
  7.2650e-10    4.820e-03    2.582e-03  
  7.2700e-10    4.339e-03    2.327e-03  
  7.2750e-10    3.917e-03    2.097e-03  
  7.2800e-10    3.531e-03    1.905e-03  
  7.2850e-10    3.180e-03    1.697e-03  
  7.2900e-10    2.893e-03    1.517e-03  
  7.2950e-10    2.601e-03    1.405e-03  
  7.3000e-10    2.352e-03    1.248e-03  
  7.3050e-10    2.142e-03    1.131e-03  
  7.3100e-10    1.911e-03    1.030e-03  
  7.3150e-10    1.774e-03    9.135e-04  
  7.3200e-10    1.583e-03    8.675e-04  
  7.3250e-10    1.463e-03    7.984e-04  
  7.3300e-10    1.352e-03    7.129e-04  
  7.3350e-10    1.182e-03    6.597e-04  
  7.3400e-10    1.091e-03    5.708e-04  
  7.3450e-10    1.015e-03    5.320e-04  
  7.3500e-10    9.310e-04    4.722e-04  
  7.3550e-10    8.492e-04    4.472e-04  
  7.3600e-10    8.040e-04    4.154e-04  
  7.3650e-10    7.174e-04    3.724e-04  
  7.3700e-10    6.538e-04    3.566e-04  
  7.3750e-10    6.209e-04    3.245e-04  
  7.3800e-10    5.788e-04    2.990e-04  
  7.3850e-10    5.043e-04    2.961e-04  
  7.3900e-10    4.907e-04    2.562e-04  
  7.3950e-10    4.648e-04    2.404e-04  
  7.4000e-10    4.324e-04    2.254e-04  
  7.4050e-10    3.890e-04    2.061e-04  
  7.4100e-10    3.737e-04    1.941e-04  
  7.4150e-10    3.556e-04    1.843e-04  
  7.4200e-10    3.327e-04    1.919e-04  
  7.4250e-10    3.270e-04    1.689e-04  
  7.4300e-10    3.157e-04    1.641e-04  
  7.4350e-10    3.013e-04    1.553e-04  
  7.4400e-10    2.930e-04    1.503e-04  
  7.4450e-10    2.509e-04    1.522e-04  
  7.4500e-10    2.593e-04    1.390e-04  
  7.4550e-10    2.501e-04    1.304e-04  
  7.4600e-10    2.454e-04    1.258e-04  
  7.4650e-10    2.382e-04    1.226e-04  
  7.4700e-10    2.370e-04    1.218e-04  
  7.4750e-10    2.281e-04    1.170e-04  
  7.4800e-10    2.231e-04    1.149e-04  
  7.4850e-10    2.199e-04    1.120e-04  
  7.4900e-10    2.104e-04    1.093e-04  
  7.4950e-10    2.132e-04    1.043e-04  
  7.5000e-10    2.016e-04    1.045e-04  
  7.5050e-10    2.000e-04    1.016e-04  
  7.5100e-10    1.970e-04    1.004e-04  
  7.5150e-10    1.939e-04    9.886e-05  
  7.5200e-10    1.922e-04    9.776e-05  
  7.5250e-10    1.950e-04    9.528e-05  
  7.5300e-10    1.892e-04    9.601e-05  
  7.5350e-10    1.877e-04    9.515e-05  
  7.5400e-10    1.859e-04    9.437e-05  
  7.5450e-10    1.851e-04    9.347e-05  
  7.5500e-10    1.801e-04    9.213e-05  
  7.5550e-10    1.801e-04    9.104e-05  
  7.5600e-10    1.777e-04    9.039e-05  
  7.5650e-10    1.776e-04    8.975e-05  
  7.5700e-10    1.763e-04    8.948e-05  
  7.5750e-10    1.761e-04    8.886e-05  
  7.5800e-10    1.746e-04    8.865e-05  
  7.5850e-10    1.748e-04    8.816e-05  
  7.5900e-10    1.757e-04    9.013e-05  
  7.5950e-10    1.733e-04    8.722e-05  
  7.6000e-10    1.726e-04    8.746e-05  
  7.6050e-10    1.718e-04    8.679e-05  
  7.6100e-10    1.712e-04    8.666e-05  
  7.6150e-10    1.715e-04    8.623e-05  
  7.6200e-10    1.701e-04    8.613e-05  
  7.6250e-10    1.697e-04    8.583e-05  
  7.6300e-10    1.694e-04    8.549e-05  
  7.6350e-10    1.693e-04    8.543e-05  
  7.6400e-10    1.682e-04    8.499e-05  
  7.6450e-10    1.685e-04    8.493e-05  
  7.6500e-10    1.682e-04    8.476e-05  
  7.6550e-10    1.676e-04    8.452e-05  
  7.6600e-10    1.662e-04    8.408e-05  
  7.6650e-10    1.671e-04    8.418e-05  
  7.6700e-10    1.668e-04    8.412e-05  
  7.6750e-10    1.667e-04    8.387e-05  
  7.6800e-10    1.684e-04    8.620e-05  
  7.6850e-10    1.656e-04    8.344e-05  
  7.6900e-10    1.764e-04    8.501e-05  
  7.6950e-10    1.667e-04    8.514e-05  
  7.7000e-10    1.665e-04    8.393e-05  
  7.7050e-10    1.649e-04    8.345e-05  
  7.7100e-10    1.655e-04    8.319e-05  
  7.7150e-10    1.649e-04    8.297e-05  
  7.7200e-10    1.641e-04    8.318e-05  
  7.7250e-10    1.639e-04    8.218e-05  
  7.7300e-10    1.651e-04    8.348e-05  
  7.7350e-10    1.641e-04    8.273e-05  
  7.7400e-10    1.646e-04    8.276e-05  
  7.7450e-10    1.639e-04    8.243e-05  
  7.7500e-10    1.631e-04    8.264e-05  
  7.7550e-10    1.636e-04    8.213e-05  
  7.7600e-10    1.637e-04    8.230e-05  
  7.7650e-10    1.626e-04    8.212e-05  
  7.7700e-10    1.639e-04    8.253e-05  
  7.7750e-10    1.632e-04    8.190e-05  
  7.7800e-10    1.635e-04    8.232e-05  
  7.7850e-10    1.630e-04    8.196e-05  
  7.7900e-10    1.619e-04    8.176e-05  
  7.7950e-10    1.632e-04    8.216e-05  
  7.8000e-10    1.636e-04    8.305e-05  
  7.8050e-10    1.623e-04    8.210e-05  
  7.8100e-10    1.626e-04    8.133e-05  
  7.8150e-10    1.634e-04    8.217e-05  
  7.8200e-10    1.618e-04    8.118e-05  
  7.8250e-10    1.625e-04    8.184e-05  
  7.8300e-10    1.610e-04    8.094e-05  
  7.8350e-10    1.627e-04    8.186e-05  
  7.8400e-10    1.608e-04    8.091e-05  
  7.8450e-10    1.628e-04    8.178e-05  
  7.8500e-10    1.606e-04    8.087e-05  
  7.8550e-10    1.616e-04    8.196e-05  
  7.8600e-10    1.573e-04    7.894e-05  
  7.8650e-10    1.609e-04    8.110e-05  
  7.8700e-10    1.579e-04    7.936e-05  
  7.8750e-10    1.610e-04    8.110e-05  
  7.8800e-10    1.584e-04    7.953e-05  
  7.8850e-10    1.612e-04    8.113e-05  
  7.8900e-10    1.585e-04    7.959e-05  
  7.8950e-10    1.611e-04    8.112e-05  
  7.9000e-10    1.594e-04    7.979e-05  
  7.9050e-10    1.612e-04    8.108e-05  
  7.9100e-10    1.590e-04    7.964e-05  
  7.9150e-10    1.606e-04    8.069e-05  
  7.9200e-10    1.593e-04    7.991e-05  
  7.9250e-10    1.596e-04    8.064e-05  
  7.9300e-10    1.599e-04    7.994e-05  
  7.9350e-10    1.604e-04    8.113e-05  
  7.9400e-10    1.595e-04    7.972e-05  
  7.9450e-10    1.612e-04    8.117e-05  
  7.9500e-10    1.591e-04    7.968e-05  
  7.9550e-10    1.611e-04    8.108e-05  
  7.9600e-10    1.589e-04    7.986e-05  
  7.9650e-10    1.613e-04    8.107e-05  
  7.9700e-10    1.610e-04    8.115e-05  
  7.9750e-10    1.589e-04    7.942e-05  
  7.9800e-10    1.606e-04    8.073e-05  
  7.9850e-10    1.594e-04    8.021e-05  
  7.9900e-10    1.609e-04    8.083e-05  
  7.9950e-10    1.609e-04    8.142e-05  
  8.0000e-10    1.606e-04    8.097e-05  
  8.0050e-10    1.613e-04    8.096e-05  
  8.0100e-10    1.595e-04    7.985e-05  
  8.0150e-10    1.594e-04    8.008e-05  
  8.0200e-10    1.604e-04    8.043e-05  
  8.0250e-10    1.598e-04    8.006e-05  
  8.0300e-10    1.592e-04    8.007e-05  
  8.0350e-10    1.598e-04    7.986e-05  
  8.0400e-10    1.606e-04    8.078e-05  
  8.0450e-10    1.586e-04    7.968e-05  
  8.0500e-10    1.606e-04    8.068e-05  
[...]
  2.7800e-09    1.564e-04    7.831e-05  
  2.7805e-09    1.564e-04    7.831e-05  
  2.7810e-09    1.564e-04    7.831e-05  
  2.7815e-09    1.564e-04    7.831e-05  
  2.7820e-09    1.564e-04    7.831e-05  
  2.7825e-09    1.564e-04    7.831e-05  
  2.7830e-09    1.564e-04    7.831e-05  
  2.7835e-09    1.564e-04    7.831e-05  
  2.7840e-09    1.564e-04    7.831e-05  
  2.7845e-09    1.564e-04    7.831e-05  
  2.7850e-09    1.564e-04    7.831e-05  
  2.7855e-09    1.564e-04    7.831e-05  
  2.7860e-09    1.564e-04    7.831e-05  
  2.7865e-09    1.564e-04    7.831e-05  
  2.7870e-09    1.564e-04    7.831e-05  
  2.7875e-09    1.564e-04    7.831e-05  
  2.7880e-09    1.564e-04    7.831e-05  
  2.7885e-09    1.564e-04    7.831e-05  
  2.7890e-09    1.564e-04    7.831e-05  
  2.7895e-09    1.564e-04    7.831e-05  
  2.7900e-09    1.564e-04    7.831e-05  
  2.7905e-09    1.564e-04    7.831e-05  
  2.7910e-09    1.564e-04    7.831e-05  
  2.7915e-09    1.564e-04    7.831e-05  
  2.7920e-09    1.564e-04    7.831e-05  
  2.7925e-09    1.562e-04    7.825e-05  
  2.7930e-09    1.564e-04    7.830e-05  
  2.7935e-09    1.564e-04    7.830e-05  
  2.7940e-09    1.564e-04    7.831e-05  
  2.7945e-09    1.564e-04    7.831e-05  
  2.7950e-09    1.564e-04    7.831e-05  
  2.7955e-09    1.564e-04    7.831e-05  
  2.7960e-09    1.564e-04    7.831e-05  
  2.7965e-09    1.564e-04    7.831e-05  
  2.7970e-09    1.564e-04    7.831e-05  
  2.7975e-09    1.564e-04    7.831e-05  
  2.7980e-09    1.564e-04    7.831e-05  
  2.7985e-09    1.564e-04    7.831e-05  
  2.7990e-09    1.564e-04    7.831e-05  
  2.7995e-09    1.564e-04    7.831e-05  
  2.8000e-09    1.564e-04    7.831e-05  
  2.8005e-09    1.564e-04    7.831e-05  
  2.8010e-09    1.564e-04    7.831e-05  
  2.8015e-09    1.564e-04    7.831e-05  
  2.8020e-09    1.564e-04    7.831e-05  
  2.8025e-09    1.564e-04    7.831e-05  
  2.8030e-09    1.564e-04    7.831e-05  
  2.8035e-09    1.564e-04    7.831e-05  
  2.8040e-09    1.564e-04    7.831e-05  
  2.8045e-09    1.564e-04    7.831e-05  
  2.8050e-09    1.564e-04    7.831e-05  
  2.8055e-09    1.564e-04    7.831e-05  
  2.8060e-09    1.564e-04    7.831e-05  
  2.8065e-09    1.564e-04    7.831e-05  
  2.8070e-09    1.564e-04    7.831e-05  
  2.8075e-09    1.564e-04    7.831e-05  
  2.8080e-09    1.564e-04    7.834e-05  
  2.8085e-09    1.564e-04    7.831e-05  
  2.8090e-09    1.564e-04    7.831e-05  
  2.8095e-09    1.564e-04    7.831e-05  
  2.8100e-09    1.564e-04    7.832e-05  
  2.8105e-09    1.564e-04    7.831e-05  
  2.8110e-09    1.564e-04    7.831e-05  
  2.8115e-09    1.564e-04    7.831e-05  
  2.8120e-09    1.564e-04    7.831e-05  
  2.8125e-09    1.564e-04    7.831e-05  
  2.8130e-09    1.564e-04    7.831e-05  
  2.8135e-09    1.564e-04    7.831e-05  
  2.8140e-09    1.564e-04    7.831e-05  
  2.8145e-09    1.564e-04    7.831e-05  
  2.8150e-09    1.564e-04    7.831e-05  
  2.8155e-09    1.564e-04    7.831e-05  
  2.8160e-09    1.564e-04    7.831e-05  
  2.8165e-09    1.564e-04    7.831e-05  
  2.8170e-09    1.564e-04    7.831e-05  
  2.8175e-09    1.564e-04    7.831e-05  
  2.8180e-09    1.564e-04    7.831e-05  
  2.8185e-09    1.564e-04    7.831e-05  
  2.8190e-09    1.564e-04    7.831e-05  
  2.8195e-09    1.564e-04    7.831e-05  
  2.8200e-09    1.564e-04    7.831e-05  
  2.8205e-09    1.564e-04    7.831e-05  
  2.8210e-09    1.564e-04    7.831e-05  
  2.8215e-09    1.564e-04    7.831e-05  
  2.8220e-09    1.564e-04    7.833e-05  
  2.8225e-09    1.564e-04    7.831e-05  
  2.8230e-09    1.564e-04    7.831e-05  
  2.8235e-09    1.564e-04    7.832e-05  
  2.8240e-09    1.564e-04    7.831e-05  
  2.8245e-09    1.564e-04    7.831e-05  
  2.8250e-09    1.564e-04    7.831e-05  
  2.8255e-09    1.564e-04    7.831e-05  
  2.8260e-09    1.564e-04    7.831e-05  
  2.8265e-09    1.564e-04    7.831e-05  
  2.8270e-09    1.564e-04    7.831e-05  
  2.8275e-09    1.564e-04    7.831e-05  
  2.8280e-09    1.564e-04    7.831e-05  
  2.8285e-09    1.564e-04    7.831e-05  
  2.8290e-09    1.564e-04    7.831e-05  
  2.8295e-09    1.564e-04    7.831e-05  
  2.8300e-09    1.564e-04    7.831e-05  
  2.8305e-09    1.564e-04    7.831e-05  
  2.8310e-09    1.564e-04    7.831e-05  
  2.8315e-09    1.564e-04    7.831e-05  
  2.8320e-09    1.564e-04    7.831e-05  
  2.8325e-09    1.564e-04    7.831e-05  
  2.8330e-09    1.564e-04    7.831e-05  
  2.8335e-09    1.564e-04    7.831e-05  
  2.8340e-09    1.564e-04    7.831e-05  
  2.8345e-09    1.564e-04    7.831e-05  
  2.8350e-09    1.564e-04    7.831e-05  
  2.8355e-09    1.564e-04    7.831e-05  
  2.8360e-09    1.564e-04    7.831e-05  
  2.8365e-09    1.562e-04    7.826e-05  
  2.8370e-09    1.564e-04    7.830e-05  
  2.8375e-09    1.564e-04    7.830e-05  
  2.8380e-09    1.564e-04    7.830e-05  
  2.8385e-09    1.564e-04    7.831e-05  
  2.8390e-09    1.564e-04    7.831e-05  
  2.8395e-09    1.564e-04    7.831e-05  
  2.8400e-09    1.564e-04    7.831e-05  
  2.8405e-09    1.564e-04    7.831e-05  
  2.8410e-09    1.564e-04    7.831e-05  
  2.8415e-09    1.564e-04    7.831e-05  
  2.8420e-09    1.564e-04    7.831e-05  
  2.8425e-09    1.564e-04    7.831e-05  
  2.8430e-09    1.564e-04    7.831e-05  
  2.8435e-09    1.564e-04    7.831e-05  
  2.8440e-09    1.564e-04    7.831e-05  
  2.8445e-09    1.564e-04    7.831e-05  
  2.8450e-09    1.564e-04    7.831e-05  
  2.8455e-09    1.564e-04    7.831e-05  
  2.8460e-09    1.564e-04    7.831e-05  
  2.8465e-09    1.564e-04    7.831e-05  
  2.8470e-09    1.564e-04    7.831e-05  
  2.8475e-09    1.564e-04    7.831e-05  
  2.8480e-09    1.564e-04    7.831e-05  
  2.8485e-09    1.564e-04    7.831e-05  
  2.8490e-09    1.564e-04    7.831e-05  
  2.8495e-09    1.564e-04    7.831e-05  
  2.8500e-09    1.564e-04    7.831e-05  
  2.8505e-09    1.564e-04    7.831e-05  
  2.8510e-09    1.564e-04    7.831e-05  
  2.8515e-09    1.564e-04    7.831e-05  
  2.8520e-09    1.564e-04    7.831e-05  
  2.8525e-09    1.564e-04    7.834e-05  
  2.8530e-09    1.564e-04    7.831e-05  
  2.8535e-09    1.564e-04    7.832e-05  
  2.8540e-09    1.564e-04    7.831e-05  
  2.8545e-09    1.564e-04    7.831e-05  
  2.8550e-09    1.564e-04    7.831e-05  
  2.8555e-09    1.564e-04    7.831e-05  
  2.8560e-09    1.564e-04    7.831e-05  
  2.8565e-09    1.564e-04    7.831e-05  
  2.8570e-09    1.564e-04    7.831e-05  
  2.8575e-09    1.564e-04    7.831e-05  
  2.8580e-09    1.564e-04    7.831e-05  
  2.8585e-09    1.564e-04    7.831e-05  
  2.8590e-09    1.564e-04    7.831e-05  
  2.8595e-09    1.564e-04    7.831e-05  
  2.8600e-09    1.564e-04    7.831e-05  
  2.8605e-09    1.564e-04    7.831e-05  
  2.8610e-09    1.564e-04    7.831e-05  
  2.8615e-09    1.564e-04    7.831e-05  
  2.8620e-09    1.564e-04    7.831e-05  
  2.8625e-09    1.564e-04    7.831e-05  
  2.8630e-09    1.564e-04    7.831e-05  
  2.8635e-09    1.564e-04    7.831e-05  
  2.8640e-09    1.564e-04    7.831e-05  
  2.8645e-09    1.564e-04    7.831e-05  
  2.8650e-09    1.564e-04    7.831e-05  
  2.8655e-09    1.564e-04    7.831e-05  
  2.8660e-09    1.564e-04    7.831e-05  
  2.8665e-09    1.564e-04    7.831e-05  
  2.8670e-09    1.564e-04    7.833e-05  
  2.8675e-09    1.564e-04    7.831e-05  
  2.8680e-09    1.564e-04    7.831e-05  
  2.8685e-09    1.564e-04    7.831e-05  
  2.8690e-09    1.564e-04    7.831e-05  
  2.8695e-09    1.564e-04    7.831e-05  
  2.8700e-09    1.564e-04    7.831e-05  
  2.8705e-09    1.564e-04    7.831e-05  
  2.8710e-09    1.564e-04    7.831e-05  
  2.8715e-09    1.564e-04    7.831e-05  
  2.8720e-09    1.564e-04    7.831e-05  
  2.8725e-09    1.564e-04    7.831e-05  
  2.8730e-09    1.564e-04    7.831e-05  
  2.8735e-09    1.564e-04    7.831e-05  
  2.8740e-09    1.564e-04    7.831e-05  
  2.8745e-09    1.564e-04    7.831e-05  
  2.8750e-09    1.564e-04    7.831e-05  
  2.8755e-09    1.564e-04    7.831e-05  
  2.8760e-09    1.564e-04    7.831e-05  
  2.8765e-09    1.564e-04    7.831e-05  
  2.8770e-09    1.564e-04    7.831e-05  
  2.8775e-09    1.564e-04    7.831e-05  
  2.8780e-09    1.564e-04    7.831e-05  
  2.8785e-09    1.564e-04    7.831e-05  
  2.8790e-09    1.564e-04    7.831e-05  
  2.8795e-09    1.564e-04    7.831e-05  
  2.8800e-09    1.564e-04    7.831e-05  
  2.8805e-09    1.564e-04    7.831e-05  
  2.8810e-09    1.564e-04    7.831e-05  
  2.8815e-09    1.564e-04    7.833e-05  
  2.8820e-09    1.564e-04    7.831e-05  
  2.8825e-09    1.564e-04    7.831e-05  
  2.8830e-09    1.564e-04    7.831e-05  
  2.8835e-09    1.564e-04    7.831e-05  
  2.8840e-09    1.564e-04    7.831e-05  
  2.8845e-09    1.564e-04    7.831e-05  
  2.8850e-09    1.564e-04    7.831e-05  
  2.8855e-09    1.564e-04    7.831e-05  
  2.8860e-09    1.564e-04    7.831e-05  
  2.8865e-09    1.564e-04    7.831e-05  
  2.8870e-09    1.564e-04    7.831e-05  
  2.8875e-09    1.564e-04    7.831e-05  
  2.8880e-09    1.564e-04    7.831e-05  
  2.8885e-09    1.564e-04    7.831e-05  
  2.8890e-09    1.564e-04    7.831e-05  
  2.8895e-09    1.564e-04    7.831e-05  
  2.8900e-09    1.564e-04    7.831e-05  
  2.8905e-09    1.564e-04    7.831e-05  
  2.8910e-09    1.564e-04    7.831e-05  
  2.8915e-09    1.564e-04    7.831e-05  
  2.8920e-09    1.564e-04    7.831e-05  
  2.8925e-09    1.564e-04    7.831e-05  
  2.8930e-09    1.564e-04    7.831e-05  
  2.8935e-09    1.564e-04    7.831e-05  
  2.8940e-09    1.564e-04    7.831e-05  
  2.8945e-09    1.564e-04    7.831e-05  
  2.8950e-09    1.564e-04    7.831e-05  
  2.8955e-09    1.564e-04    7.831e-05  
  2.8960e-09    1.564e-04    7.831e-05  
  2.8965e-09    1.562e-04    7.826e-05  
  2.8970e-09    1.564e-04    7.830e-05  
  2.8975e-09    1.564e-04    7.830e-05  
  2.8980e-09    1.564e-04    7.830e-05  
  2.8985e-09    1.564e-04    7.831e-05  
  2.8990e-09    1.564e-04    7.831e-05  
  2.8995e-09    1.564e-04    7.831e-05  
  2.9000e-09    1.564e-04    7.831e-05  
  2.9005e-09    1.564e-04    7.831e-05  
  2.9010e-09    1.564e-04    7.831e-05  
  2.9015e-09    1.564e-04    7.831e-05  
  2.9020e-09    1.564e-04    7.831e-05  
  2.9025e-09    1.564e-04    7.831e-05  
  2.9030e-09    1.564e-04    7.831e-05  
  2.9035e-09    1.564e-04    7.831e-05  
  2.9040e-09    1.564e-04    7.831e-05  
  2.9045e-09    1.564e-04    7.831e-05  
  2.9050e-09    1.564e-04    7.831e-05  
  2.9055e-09    1.564e-04    7.831e-05  
  2.9060e-09    1.564e-04    7.831e-05  
  2.9065e-09    1.564e-04    7.831e-05  
  2.9070e-09    1.564e-04    7.831e-05  
  2.9075e-09    1.564e-04    7.831e-05  
  2.9080e-09    1.564e-04    7.831e-05  
  2.9085e-09    1.564e-04    7.831e-05  
  2.9090e-09    1.564e-04    7.831e-05  
  2.9095e-09    1.564e-04    7.831e-05  
  2.9100e-09    1.564e-04    7.831e-05  
  2.9105e-09    1.564e-04    7.831e-05  
  2.9110e-09    1.564e-04    7.831e-05  
  2.9115e-09    1.564e-04    7.831e-05  
  2.9120e-09    1.564e-04    7.831e-05  
  2.9125e-09    1.564e-04    7.831e-05  
  2.9130e-09    1.564e-04    7.831e-05  
  2.9135e-09    1.562e-04    7.826e-05  
  2.9140e-09    1.564e-04    7.829e-05  
  2.9145e-09    1.564e-04    7.830e-05  
  2.9150e-09    1.564e-04    7.830e-05  
  2.9155e-09    1.564e-04    7.830e-05  
  2.9160e-09    1.564e-04    7.831e-05  
  2.9165e-09    1.564e-04    7.831e-05  
  2.9170e-09    1.564e-04    7.831e-05  
  2.9175e-09    1.564e-04    7.831e-05  
  2.9180e-09    1.564e-04    7.831e-05  
  2.9185e-09    1.564e-04    7.831e-05  
  2.9190e-09    1.564e-04    7.831e-05  
  2.9195e-09    1.564e-04    7.831e-05  
  2.9200e-09    1.564e-04    7.831e-05  
  2.9205e-09    1.564e-04    7.831e-05  
  2.9210e-09    1.564e-04    7.831e-05  
  2.9215e-09    1.564e-04    7.831e-05  
  2.9220e-09    1.564e-04    7.831e-05  
  2.9225e-09    1.564e-04    7.831e-05  
  2.9230e-09    1.564e-04    7.831e-05  
  2.9235e-09    1.564e-04    7.831e-05  
  2.9240e-09    1.564e-04    7.831e-05  
  2.9245e-09    1.564e-04    7.831e-05  
  2.9250e-09    1.564e-04    7.831e-05  
  2.9255e-09    1.564e-04    7.831e-05  
  2.9260e-09    1.564e-04    7.831e-05  
  2.9265e-09    1.564e-04    7.831e-05  
  2.9270e-09    1.564e-04    7.831e-05  
  2.9275e-09    1.564e-04    7.831e-05  
  2.9280e-09    1.564e-04    7.831e-05  
  2.9285e-09    1.564e-04    7.831e-05  
  2.9290e-09    1.564e-04    7.831e-05  
  2.9295e-09    1.564e-04    7.831e-05  
  2.9300e-09    1.564e-04    7.831e-05  
  2.9305e-09    1.564e-04    7.834e-05  
  2.9310e-09    1.564e-04    7.831e-05  
  2.9315e-09    1.564e-04    7.832e-05  
  2.9320e-09    1.564e-04    7.831e-05  
  2.9325e-09    1.564e-04    7.831e-05  
  2.9330e-09    1.564e-04    7.831e-05  
  2.9335e-09    1.564e-04    7.831e-05  
  2.9340e-09    1.564e-04    7.831e-05  
  2.9345e-09    1.564e-04    7.831e-05  
  2.9350e-09    1.564e-04    7.831e-05  
  2.9355e-09    1.564e-04    7.831e-05  
  2.9360e-09    1.564e-04    7.831e-05  
  2.9365e-09    1.564e-04    7.831e-05  
  2.9370e-09    1.564e-04    7.831e-05  
  2.9375e-09    1.564e-04    7.831e-05  
  2.9380e-09    1.564e-04    7.831e-05  
  2.9385e-09    1.564e-04    7.831e-05  
  2.9390e-09    1.564e-04    7.831e-05  
  2.9395e-09    1.564e-04    7.831e-05  
  2.9400e-09    1.564e-04    7.831e-05  
  2.9405e-09    1.564e-04    7.831e-05  
  2.9410e-09    1.564e-04    7.831e-05  
  2.9415e-09    1.564e-04    7.831e-05  
  2.9420e-09    1.564e-04    7.831e-05  
  2.9425e-09    1.564e-04    7.831e-05  
  2.9430e-09    1.564e-04    7.831e-05  
  2.9435e-09    1.564e-04    7.831e-05  
  2.9440e-09    1.564e-04    7.831e-05  
  2.9445e-09    1.564e-04    7.831e-05  
  2.9450e-09    1.564e-04    7.831e-05  
  2.9455e-09    1.564e-04    7.831e-05  
  2.9460e-09    1.562e-04    7.826e-05  
  2.9465e-09    1.564e-04    7.830e-05  
  2.9470e-09    1.564e-04    7.830e-05  
  2.9475e-09    1.564e-04    7.830e-05  
  2.9480e-09    1.564e-04    7.831e-05  
  2.9485e-09    1.564e-04    7.831e-05  
  2.9490e-09    1.564e-04    7.831e-05  
  2.9495e-09    1.564e-04    7.831e-05  
  2.9500e-09    1.564e-04    7.831e-05  
  2.9505e-09    1.564e-04    7.831e-05  
  2.9510e-09    1.564e-04    7.831e-05  
  2.9515e-09    1.564e-04    7.831e-05  
  2.9520e-09    1.564e-04    7.831e-05  
  2.9525e-09    1.564e-04    7.831e-05  
  2.9530e-09    1.564e-04    7.831e-05  
  2.9535e-09    1.564e-04    7.831e-05  
  2.9540e-09    1.564e-04    7.831e-05  
  2.9545e-09    1.564e-04    7.831e-05  
  2.9550e-09    1.564e-04    7.831e-05  
  2.9555e-09    1.564e-04    7.831e-05  
  2.9560e-09    1.564e-04    7.831e-05  
  2.9565e-09    1.564e-04    7.831e-05  
  2.9570e-09    1.564e-04    7.831e-05  
  2.9575e-09    1.564e-04    7.831e-05  
  2.9580e-09    1.564e-04    7.831e-05  
  2.9585e-09    1.564e-04    7.831e-05  
  2.9590e-09    1.564e-04    7.831e-05  
  2.9595e-09    1.564e-04    7.831e-05  
  2.9600e-09    1.564e-04    7.831e-05  
  2.9605e-09    1.564e-04    7.831e-05  
  2.9610e-09    1.564e-04    7.831e-05  
  2.9615e-09    1.564e-04    7.831e-05  
  2.9620e-09    1.564e-04    7.831e-05  
  2.9625e-09    1.564e-04    7.831e-05  
  2.9630e-09    1.564e-04    7.831e-05  
  2.9635e-09    1.562e-04    7.826e-05  
  2.9640e-09    1.564e-04    7.829e-05  
  2.9645e-09    1.564e-04    7.830e-05  
  2.9650e-09    1.564e-04    7.830e-05  
  2.9655e-09    1.564e-04    7.830e-05  
  2.9660e-09    1.564e-04    7.831e-05  
  2.9665e-09    1.564e-04    7.831e-05  
  2.9670e-09    1.564e-04    7.831e-05  
  2.9675e-09    1.564e-04    7.831e-05  
  2.9680e-09    1.564e-04    7.831e-05  
  2.9685e-09    1.564e-04    7.831e-05  
  2.9690e-09    1.564e-04    7.831e-05  
  2.9695e-09    1.564e-04    7.831e-05  
  2.9700e-09    1.564e-04    7.831e-05  
  2.9705e-09    1.564e-04    7.831e-05  
  2.9710e-09    1.564e-04    7.831e-05  
  2.9715e-09    1.564e-04    7.831e-05  
  2.9720e-09    1.564e-04    7.831e-05  
  2.9725e-09    1.564e-04    7.831e-05  
  2.9730e-09    1.564e-04    7.831e-05  
  2.9735e-09    1.564e-04    7.831e-05  
  2.9740e-09    1.564e-04    7.831e-05  
  2.9745e-09    1.564e-04    7.831e-05  
  2.9750e-09    1.564e-04    7.831e-05  
  2.9755e-09    1.564e-04    7.831e-05  
  2.9760e-09    1.564e-04    7.831e-05  
  2.9765e-09    1.564e-04    7.831e-05  
  2.9770e-09    1.564e-04    7.831e-05  
  2.9775e-09    1.564e-04    7.831e-05  
  2.9780e-09    1.564e-04    7.831e-05  
  2.9785e-09    1.564e-04    7.831e-05  
  2.9790e-09    1.564e-04    7.831e-05  
  2.9795e-09    1.564e-04    7.831e-05  
  2.9800e-09    1.564e-04    7.831e-05  
  2.9805e-09    1.564e-04    7.831e-05  
  2.9810e-09    1.564e-04    7.834e-05  
  2.9815e-09    1.564e-04    7.831e-05  
  2.9820e-09    1.564e-04    7.831e-05  
  2.9825e-09    1.564e-04    7.831e-05  
  2.9830e-09    1.564e-04    7.831e-05  
  2.9835e-09    1.564e-04    7.831e-05  
  2.9840e-09    1.564e-04    7.831e-05  
  2.9845e-09    1.564e-04    7.831e-05  
  2.9850e-09    1.564e-04    7.831e-05  
  2.9855e-09    1.564e-04    7.831e-05  
  2.9860e-09    1.564e-04    7.831e-05  
  2.9865e-09    1.564e-04    7.831e-05  
  2.9870e-09    1.564e-04    7.831e-05  
  2.9875e-09    1.564e-04    7.831e-05  
  2.9880e-09    1.564e-04    7.831e-05  
  2.9885e-09    1.564e-04    7.831e-05  
  2.9890e-09    1.564e-04    7.831e-05  
  2.9895e-09    1.564e-04    7.831e-05  
  2.9900e-09    1.564e-04    7.831e-05  
  2.9905e-09    1.564e-04    7.831e-05  
  2.9910e-09    1.564e-04    7.831e-05  
  2.9915e-09    1.564e-04    7.831e-05  
  2.9920e-09    1.564e-04    7.831e-05  
  2.9925e-09    1.564e-04    7.831e-05  
  2.9930e-09    1.564e-04    7.831e-05  
  2.9935e-09    1.564e-04    7.831e-05  
  2.9940e-09    1.564e-04    7.831e-05  
  2.9945e-09    1.564e-04    7.831e-05  
  2.9950e-09    1.564e-04    7.831e-05  
  2.9955e-09    1.564e-04    7.831e-05  
  2.9960e-09    1.564e-04    7.831e-05  
  2.9965e-09    1.564e-04    7.831e-05  
  2.9970e-09    1.562e-04    7.826e-05  
  2.9975e-09    1.564e-04    7.830e-05  
  2.9980e-09    1.564e-04    7.830e-05  
  2.9985e-09    1.564e-04    7.830e-05  
  2.9990e-09    1.564e-04    7.831e-05  
  2.9995e-09    1.564e-04    7.831e-05  
  3.0000e-09    1.564e-04    7.831e-05  
y

          ***** job concluded
1****** HSPICE -- F-2011.09 32-BIT (Sep  5 2011) linux ******                   
 ******  
 

  ******  job statistics summary tnom=  25.000 temp=  25.000 *****
  
  
 ******  Machine Information  ******
 CPU:
 model name	: Intel(R) Core(TM)2 Quad CPU    Q9550  @ 2.83GHz
 cpu MHz	: 2826.276
  
 OS:
 Linux version 3.16.0-4-amd64 (debian-kernel@lists.debian.org) (gcc version 4.8.
 4 (Debian 4.8.4-1) ) #1 SMP Debian 3.16.7-ckt20-1+deb8u4 (2016-02-29)


  ******  HSPICE Threads Information  ******

  Command Line Threads Count :     1
  Available CPU Count        :     4
  Actual Threads Count       :     1


  ******  Circuit Statistics  ******
  # nodes       =     104 # elements   =      28
  # resistors   =       0 # capacitors =       0 # inductors   =       0
  # mutual_inds =       0 # vccs       =       0 # vcvs        =       0
  # cccs        =       0 # ccvs       =       0 # volt_srcs   =       4
  # curr_srcs   =       2 # diodes     =       0 # bjts        =       0
  # jfets       =       0 # mosfets    =      22 # U elements  =       0
  # T elements  =       0 # W elements =       0 # B elements  =       0
  # S elements  =       0 # P elements =       0 # va device   =       0
  # vector_srcs =       0


  ******  Runtime Statistics (seconds)  ******

  analysis           time    # points   tot. iter  conv.iter
  op point           0.00           1          10
  transient          0.76        5997       24062       12028 rev=        14
  readin             0.06
  errchk             0.02
  setup              0.00
  output             0.00


           peak memory used         86.51 megabytes
           total cpu time            0.84 seconds
           total elapsed time        2.46 seconds
           job started at     23:14:25 09/08/2016
           job ended   at     23:14:28 09/08/2016


 lic: Release hspice token(s) 
