$DATA1 SOURCE='HSPICE' VERSION='F-2011.09 32-BIT'
.TITLE '$ calculate delay of circuit'
 totcur           temper           alter#            
   -1.0000          25.0000        1                 
