Using: /usr/bin/time -p /synopsys/HSPICE/hspice/linux/hspice sourcetest.sp
 ****** HSPICE -- F-2011.09 32-BIT (Sep  5 2011) linux ******                   
  Copyright (C) 2011 Synopsys, Inc. All Rights Reserved.                        
  Unpublished-rights reserved under US copyright laws.
  This program is protected by law and is subject to the
  terms and conditions of the license agreement from Synopsys.
  Use of this program is your acceptance to be bound by the
  license agreement. HSPICE is the trademark of Synopsys, Inc.
  Input File: sourcetest.sp                                                     
  Command line options: sourcetest.sp
 lic: No 'setenv LM_LICENSE_FILE' in current environment' 
 lic:  
 lic: FLEXlm: v10.8 
 lic: USER:   watkins              HOSTNAME: engr-e132-d10 
 lic: HOSTID: 002564bd04da         PID:      15294 
 lic: Using FLEXlm license file: 
 lic: 28000@131.230.191.194 
 lic: Checkout 1 hspice 
 lic: License/Maintenance for hspice will expire on 30-dec-2013/2012.06 
 lic: 1(in_use)/50(total) FLOATING license(s) on SERVER 131.230.191.194 
 lic:   
 Init: read install configuration file: /synopsys/HSPICE/hspice/meta.cfg
  **warning** option measfile is disabled due to no .alter in the netlist
  **info** (sourcetest.sp:12) DC voltage reset to initial transient source value              in source        0:ip1                 new dc= -0.2764D-08
  
 **warning**  No DC path to ground from node        0:z                defined in subckt 0               ; Connected by HSPICE with gdcpath



 **warning** the following singular supplies were terminated to 1 meg resistor 
   supply       node1            node2
  vdd                     0:vdd              defined in subckt 0                     0:0                defined in subckt 0               
      
 *****************************************************************
 ******  option summary
 ******
 runlvl  = 3         bypass  = 2         
1****** HSPICE -- F-2011.09 32-BIT (Sep  5 2011) linux ******                   
 ******  
 .lib 'ibm96w90nm.lib' cmos_models

  ******  operating point information tnom=  25.000 temp=  25.000 *****
 ***** operating point status is voltage   simulation time is     0.     
    node    =voltage      node    =voltage

 +0:vdd     =   1.0000  0:z       = 2.764e+03


 maximum nodal capacitance=   1.000E-13         on node     0:z               

    nodal  capacitance table 

    node    =    cap      node    =    cap

 +0:vdd     =   0.      0:z       = 1.000e-13

 
 ******  
 .lib 'ibm96w90nm.lib' cmos_models

  ******  transient analysis tnom=  25.000 temp=  25.000 *****

   *** data name = setsrce  1st sweep ***

x

        time    voltage      current    
                     z           ip1    
    0.          2.764e+03   -2.764e-09  
  5.0000e-13    2.764e+03   -2.765e-09  
  1.0000e-12    2.764e+03   -2.765e-09  
  1.5000e-12    2.764e+03   -2.765e-09  
  2.0000e-12    2.764e+03   -2.764e-09  
  2.5000e-12    2.764e+03   -2.764e-09  
  3.0000e-12    2.764e+03   -2.764e-09  
  3.5000e-12    2.764e+03   -2.764e-09  
  4.0000e-12    2.764e+03   -2.764e-09  
  4.5000e-12    2.764e+03   -2.764e-09  
  5.0000e-12    2.764e+03   -2.764e-09  
  5.5000e-12    2.764e+03   -2.764e-09  
  6.0000e-12    2.764e+03   -2.764e-09  
  6.5000e-12    2.764e+03   -2.764e-09  
  7.0000e-12    2.764e+03   -2.764e-09  
  7.5000e-12    2.764e+03   -2.764e-09  
  8.0000e-12    2.764e+03   -2.764e-09  
  8.5000e-12    2.764e+03   -2.764e-09  
  9.0000e-12    2.764e+03   -2.764e-09  
  9.5000e-12    2.764e+03   -2.764e-09  
  1.0000e-11    2.764e+03   -2.764e-09  
  1.0500e-11    2.764e+03   -2.764e-09  
  1.1000e-11    2.764e+03   -2.764e-09  
  1.1500e-11    2.764e+03   -2.764e-09  
  1.2000e-11    2.764e+03   -2.764e-09  
  1.2500e-11    2.764e+03   -2.764e-09  
  1.3000e-11    2.764e+03   -2.764e-09  
  1.3500e-11    2.764e+03   -2.764e-09  
  1.4000e-11    2.764e+03   -2.764e-09  
  1.4500e-11    2.764e+03   -2.764e-09  
  1.5000e-11    2.764e+03   -2.764e-09  
  1.5500e-11    2.764e+03   -2.764e-09  
  1.6000e-11    2.764e+03   -2.764e-09  
  1.6500e-11    2.764e+03   -2.764e-09  
  1.7000e-11    2.764e+03   -2.764e-09  
  1.7500e-11    2.764e+03   -2.764e-09  
  1.8000e-11    2.764e+03   -2.764e-09  
  1.8500e-11    2.764e+03   -2.764e-09  
  1.9000e-11    2.764e+03   -2.764e-09  
  1.9500e-11    2.764e+03   -2.764e-09  
  2.0000e-11    2.764e+03   -2.764e-09  
  2.0500e-11    2.764e+03   -2.764e-09  
  2.1000e-11    2.764e+03   -2.764e-09  
  2.1500e-11    2.764e+03   -2.764e-09  
  2.2000e-11    2.764e+03   -2.764e-09  
  2.2500e-11    2.764e+03   -2.764e-09  
  2.3000e-11    2.764e+03   -2.764e-09  
  2.3500e-11    2.764e+03   -2.764e-09  
  2.4000e-11    2.764e+03   -2.764e-09  
  2.4500e-11    2.764e+03   -2.764e-09  
  2.5000e-11    2.764e+03   -2.764e-09  
  2.5500e-11    2.764e+03   -2.764e-09  
  2.6000e-11    2.764e+03   -2.764e-09  
  2.6500e-11    2.764e+03   -2.764e-09  
  2.7000e-11    2.764e+03   -2.764e-09  
  2.7500e-11    2.764e+03   -2.764e-09  
  2.8000e-11    2.764e+03   -2.764e-09  
  2.8500e-11    2.764e+03   -2.764e-09  
  2.9000e-11    2.764e+03   -2.764e-09  
  2.9500e-11    2.764e+03   -2.764e-09  
  3.0000e-11    2.764e+03   -2.764e-09  
  3.0500e-11    2.764e+03   -2.764e-09  
  3.1000e-11    2.764e+03   -2.764e-09  
  3.1500e-11    2.764e+03   -2.764e-09  
  3.2000e-11    2.764e+03   -2.764e-09  
  3.2500e-11    2.764e+03   -2.764e-09  
  3.3000e-11    2.764e+03   -2.764e-09  
  3.3500e-11    2.764e+03   -2.764e-09  
  3.4000e-11    2.764e+03   -2.764e-09  
  3.4500e-11    2.764e+03   -2.764e-09  
  3.5000e-11    2.764e+03   -2.764e-09  
  3.5500e-11    2.764e+03   -2.764e-09  
  3.6000e-11    2.764e+03   -2.764e-09  
  3.6500e-11    2.764e+03   -2.764e-09  
  3.7000e-11    2.764e+03   -2.764e-09  
  3.7500e-11    2.764e+03   -2.764e-09  
  3.8000e-11    2.764e+03   -2.764e-09  
  3.8500e-11    2.764e+03   -2.764e-09  
  3.9000e-11    2.764e+03   -2.764e-09  
  3.9500e-11    2.764e+03   -2.764e-09  
  4.0000e-11    2.764e+03   -2.764e-09  
  4.0500e-11    2.764e+03   -2.764e-09  
  4.1000e-11    2.764e+03   -2.764e-09  
  4.1500e-11    2.764e+03   -2.764e-09  
  4.2000e-11    2.764e+03   -2.764e-09  
  4.2500e-11    2.764e+03   -2.764e-09  
  4.3000e-11    2.764e+03   -2.764e-09  
  4.3500e-11    2.764e+03   -2.764e-09  
  4.4000e-11    2.764e+03   -2.764e-09  
  4.4500e-11    2.764e+03   -2.764e-09  
  4.5000e-11    2.764e+03   -2.764e-09  
  4.5500e-11    2.764e+03   -2.764e-09  
  4.6000e-11    2.764e+03   -2.764e-09  
  4.6500e-11    2.764e+03   -2.764e-09  
  4.7000e-11    2.764e+03   -2.764e-09  
  4.7500e-11    2.764e+03   -2.764e-09  
  4.8000e-11    2.764e+03   -2.764e-09  
  4.8500e-11    2.764e+03   -2.764e-09  
  4.9000e-11    2.764e+03   -2.764e-09  
  4.9500e-11    2.764e+03   -2.764e-09  
  5.0000e-11    2.764e+03   -2.764e-09  
  5.0500e-11    2.764e+03   -2.764e-09  
  5.1000e-11    2.764e+03   -2.764e-09  
  5.1500e-11    2.764e+03   -2.764e-09  
  5.2000e-11    2.764e+03   -2.764e-09  
  5.2500e-11    2.764e+03   -2.764e-09  
  5.3000e-11    2.764e+03   -2.764e-09  
  5.3500e-11    2.764e+03   -2.764e-09  
  5.4000e-11    2.764e+03   -2.764e-09  
  5.4500e-11    2.764e+03   -2.764e-09  
  5.5000e-11    2.764e+03   -2.764e-09  
  5.5500e-11    2.764e+03   -2.764e-09  
  5.6000e-11    2.764e+03   -2.764e-09  
  5.6500e-11    2.764e+03   -2.764e-09  
  5.7000e-11    2.764e+03   -2.764e-09  
  5.7500e-11    2.764e+03   -2.764e-09  
  5.8000e-11    2.764e+03   -2.764e-09  
  5.8500e-11    2.764e+03   -2.764e-09  
  5.9000e-11    2.764e+03   -2.764e-09  
  5.9500e-11    2.764e+03   -2.764e-09  
  6.0000e-11    2.764e+03   -2.764e-09  
  6.0500e-11    2.764e+03   -2.764e-09  
  6.1000e-11    2.764e+03   -2.764e-09  
  6.1500e-11    2.764e+03   -2.764e-09  
  6.2000e-11    2.764e+03   -2.764e-09  
  6.2500e-11    2.764e+03   -2.764e-09  
  6.3000e-11    2.764e+03   -2.764e-09  
  6.3500e-11    2.764e+03   -2.764e-09  
  6.4000e-11    2.764e+03   -2.764e-09  
  6.4500e-11    2.764e+03   -2.764e-09  
  6.5000e-11    2.764e+03   -2.764e-09  
  6.5500e-11    2.764e+03   -2.764e-09  
  6.6000e-11    2.764e+03   -2.764e-09  
  6.6500e-11    2.764e+03   -2.764e-09  
  6.7000e-11    2.764e+03   -2.764e-09  
  6.7500e-11    2.764e+03   -2.764e-09  
  6.8000e-11    2.764e+03   -2.764e-09  
  6.8500e-11    2.764e+03   -2.764e-09  
  6.9000e-11    2.764e+03   -2.764e-09  
  6.9500e-11    2.764e+03   -2.764e-09  
  7.0000e-11    2.764e+03   -2.764e-09  
  7.0500e-11    2.764e+03   -2.764e-09  
  7.1000e-11    2.764e+03   -2.764e-09  
  7.1500e-11    2.764e+03   -2.764e-09  
  7.2000e-11    2.764e+03   -2.764e-09  
  7.2500e-11    2.764e+03   -2.764e-09  
  7.3000e-11    2.764e+03   -2.764e-09  
  7.3500e-11    2.764e+03   -2.764e-09  
  7.4000e-11    2.764e+03   -2.764e-09  
  7.4500e-11    2.764e+03   -2.764e-09  
  7.5000e-11    2.764e+03   -2.764e-09  
  7.5500e-11    2.764e+03   -2.764e-09  
  7.6000e-11    2.764e+03   -2.764e-09  
  7.6500e-11    2.764e+03   -2.764e-09  
  7.7000e-11    2.764e+03   -2.764e-09  
  7.7500e-11    2.764e+03   -2.764e-09  
  7.8000e-11    2.764e+03   -2.764e-09  
  7.8500e-11    2.764e+03   -2.764e-09  
  7.9000e-11    2.764e+03   -2.764e-09  
  7.9500e-11    2.764e+03   -2.764e-09  
  8.0000e-11    2.764e+03   -2.764e-09  
  8.0500e-11    2.764e+03   -2.764e-09  
  8.1000e-11    2.764e+03   -2.764e-09  
  8.1500e-11    2.764e+03   -2.764e-09  
  8.2000e-11    2.764e+03   -2.764e-09  
  8.2500e-11    2.764e+03   -2.764e-09  
  8.3000e-11    2.764e+03   -2.764e-09  
  8.3500e-11    2.764e+03   -2.764e-09  
  8.4000e-11    2.764e+03   -2.764e-09  
  8.4500e-11    2.764e+03   -2.764e-09  
  8.5000e-11    2.764e+03   -2.764e-09  
  8.5500e-11    2.764e+03   -2.764e-09  
  8.6000e-11    2.764e+03   -2.764e-09  
  8.6500e-11    2.764e+03   -2.764e-09  
  8.7000e-11    2.764e+03   -2.764e-09  
  8.7500e-11    2.764e+03   -2.764e-09  
  8.8000e-11    2.764e+03   -2.764e-09  
  8.8500e-11    2.764e+03   -2.764e-09  
  8.9000e-11    2.764e+03   -2.764e-09  
  8.9500e-11    2.764e+03   -2.764e-09  
  9.0000e-11    2.764e+03   -2.764e-09  
  9.0500e-11    2.764e+03   -2.764e-09  
  9.1000e-11    2.764e+03   -2.764e-09  
  9.1500e-11    2.764e+03   -2.764e-09  
  9.2000e-11    2.764e+03   -2.764e-09  
  9.2500e-11    2.764e+03   -2.764e-09  
  9.3000e-11    2.764e+03   -2.764e-09  
  9.3500e-11    2.764e+03   -2.764e-09  
  9.4000e-11    2.764e+03   -2.764e-09  
  9.4500e-11    2.764e+03   -2.764e-09  
  9.5000e-11    2.764e+03   -2.764e-09  
  9.5500e-11    2.764e+03   -2.764e-09  
  9.6000e-11    2.764e+03   -2.764e-09  
  9.6500e-11    2.764e+03   -2.764e-09  
  9.7000e-11    2.764e+03   -2.764e-09  
  9.7500e-11    2.764e+03   -2.764e-09  
  9.8000e-11    2.764e+03   -2.764e-09  
  9.8500e-11    2.764e+03   -2.764e-09  
  9.9000e-11    2.764e+03   -2.764e-09  
  9.9500e-11    2.764e+03   -2.764e-09  
  1.0000e-10    2.764e+03   -2.764e-09  
  1.0050e-10    2.764e+03   -2.764e-09  
  1.0100e-10    2.764e+03   -2.764e-09  
  1.0150e-10    2.764e+03   -2.764e-09  
  1.0200e-10    2.764e+03   -2.764e-09  
  1.0250e-10    2.764e+03   -2.764e-09  
  1.0300e-10    2.764e+03   -2.764e-09  
  1.0350e-10    2.764e+03   -2.764e-09  
  1.0400e-10    2.764e+03   -2.764e-09  
  1.0450e-10    2.764e+03   -2.764e-09  
  1.0500e-10    2.764e+03   -2.764e-09  
  1.0550e-10    2.764e+03   -2.764e-09  
  1.0600e-10    2.764e+03   -2.764e-09  
  1.0650e-10    2.764e+03   -2.764e-09  
  1.0700e-10    2.764e+03   -2.764e-09  
  1.0750e-10    2.764e+03   -2.764e-09  
  1.0800e-10    2.764e+03   -2.764e-09  
  1.0850e-10    2.764e+03   -2.764e-09  
  1.0900e-10    2.764e+03   -2.764e-09  
  1.0950e-10    2.764e+03   -2.764e-09  
  1.1000e-10    2.764e+03   -2.764e-09  
  1.1050e-10    2.764e+03   -2.764e-09  
  1.1100e-10    2.764e+03   -2.764e-09  
  1.1150e-10    2.764e+03   -2.764e-09  
  1.1200e-10    2.764e+03   -2.764e-09  
  1.1250e-10    2.764e+03   -2.764e-09  
  1.1300e-10    2.764e+03   -2.764e-09  
  1.1350e-10    2.764e+03   -2.764e-09  
  1.1400e-10    2.764e+03   -2.764e-09  
  1.1450e-10    2.764e+03   -2.764e-09  
  1.1500e-10    2.764e+03   -2.764e-09  
  1.1550e-10    2.764e+03   -2.764e-09  
  1.1600e-10    2.764e+03   -2.764e-09  
  1.1650e-10    2.764e+03   -2.764e-09  
  1.1700e-10    2.764e+03   -2.764e-09  
  1.1750e-10    2.764e+03   -2.764e-09  
  1.1800e-10    2.764e+03   -2.764e-09  
  1.1850e-10    2.764e+03   -2.764e-09  
  1.1900e-10    2.764e+03   -2.764e-09  
  1.1950e-10    2.764e+03   -2.764e-09  
  1.2000e-10    2.764e+03   -2.764e-09  
  1.2050e-10    2.764e+03   -2.764e-09  
  1.2100e-10    2.764e+03   -2.764e-09  
  1.2150e-10    2.764e+03   -2.764e-09  
  1.2200e-10    2.764e+03   -2.764e-09  
  1.2250e-10    2.764e+03   -2.764e-09  
  1.2300e-10    2.764e+03   -2.764e-09  
  1.2350e-10    2.764e+03   -2.764e-09  
  1.2400e-10    2.764e+03   -2.764e-09  
  1.2450e-10    2.764e+03   -2.764e-09  
  1.2500e-10    2.764e+03   -2.764e-09  
  1.2550e-10    2.764e+03   -2.764e-09  
  1.2600e-10    2.764e+03   -2.764e-09  
  1.2650e-10    2.764e+03   -2.764e-09  
  1.2700e-10    2.764e+03   -2.764e-09  
  1.2750e-10    2.764e+03   -2.764e-09  
  1.2800e-10    2.764e+03   -2.764e-09  
  1.2850e-10    2.764e+03   -2.764e-09  
  1.2900e-10    2.764e+03   -2.764e-09  
  1.2950e-10    2.764e+03   -2.764e-09  
  1.3000e-10    2.764e+03   -2.764e-09  
  1.3050e-10    2.764e+03   -2.764e-09  
  1.3100e-10    2.764e+03   -2.764e-09  
  1.3150e-10    2.764e+03   -2.764e-09  
  1.3200e-10    2.764e+03   -2.764e-09  
  1.3250e-10    2.764e+03   -2.764e-09  
  1.3300e-10    2.764e+03   -2.764e-09  
  1.3350e-10    2.764e+03   -2.764e-09  
  1.3400e-10    2.764e+03   -2.764e-09  
  1.3450e-10    2.764e+03   -2.764e-09  
  1.3500e-10    2.764e+03   -2.764e-09  
  1.3550e-10    2.764e+03   -2.764e-09  
  1.3600e-10    2.764e+03   -2.764e-09  
  1.3650e-10    2.764e+03   -2.764e-09  
  1.3700e-10    2.764e+03   -2.764e-09  
  1.3750e-10    2.764e+03   -2.764e-09  
  1.3800e-10    2.764e+03   -2.764e-09  
  1.3850e-10    2.764e+03   -2.764e-09  
  1.3900e-10    2.764e+03   -2.764e-09  
  1.3950e-10    2.764e+03   -2.764e-09  
  1.4000e-10    2.764e+03   -2.764e-09  
  1.4050e-10    2.764e+03   -2.764e-09  
  1.4100e-10    2.764e+03   -2.764e-09  
  1.4150e-10    2.764e+03   -2.764e-09  
  1.4200e-10    2.764e+03   -2.764e-09  
  1.4250e-10    2.764e+03   -2.764e-09  
  1.4300e-10    2.764e+03   -2.764e-09  
  1.4350e-10    2.764e+03   -2.764e-09  
  1.4400e-10    2.764e+03   -2.764e-09  
  1.4450e-10    2.764e+03   -2.764e-09  
  1.4500e-10    2.764e+03   -2.764e-09  
  1.4550e-10    2.764e+03   -2.764e-09  
  1.4600e-10    2.764e+03   -2.764e-09  
  1.4650e-10    2.764e+03   -2.764e-09  
  1.4700e-10    2.764e+03   -2.764e-09  
  1.4750e-10    2.764e+03   -2.764e-09  
  1.4800e-10    2.764e+03   -2.764e-09  
  1.4850e-10    2.764e+03   -2.764e-09  
  1.4900e-10    2.764e+03   -2.764e-09  
  1.4950e-10    2.764e+03   -2.764e-09  
  1.5000e-10    2.764e+03   -2.764e-09  
  1.5050e-10    2.764e+03   -2.764e-09  
  1.5100e-10    2.764e+03   -2.764e-09  
  1.5150e-10    2.764e+03   -2.764e-09  
  1.5200e-10    2.764e+03   -2.764e-09  
  1.5250e-10    2.764e+03   -2.764e-09  
  1.5300e-10    2.764e+03   -2.764e-09  
  1.5350e-10    2.764e+03   -2.764e-09  
  1.5400e-10    2.764e+03   -2.764e-09  
  1.5450e-10    2.764e+03   -2.764e-09  
  1.5500e-10    2.764e+03   -2.764e-09  
  1.5550e-10    2.764e+03   -2.764e-09  
  1.5600e-10    2.764e+03   -2.764e-09  
  1.5650e-10    2.764e+03   -2.764e-09  
  1.5700e-10    2.764e+03   -2.764e-09  
  1.5750e-10    2.764e+03   -2.764e-09  
  1.5800e-10    2.764e+03   -2.764e-09  
  1.5850e-10    2.764e+03   -2.764e-09  
  1.5900e-10    2.764e+03   -2.764e-09  
  1.5950e-10    2.764e+03   -2.764e-09  
  1.6000e-10    2.764e+03   -2.764e-09  
  1.6050e-10    2.764e+03   -2.764e-09  
  1.6100e-10    2.764e+03   -2.764e-09  
  1.6150e-10    2.764e+03   -2.764e-09  
  1.6200e-10    2.764e+03   -2.764e-09  
  1.6250e-10    2.764e+03   -2.764e-09  
  1.6300e-10    2.764e+03   -2.764e-09  
  1.6350e-10    2.764e+03   -2.764e-09  
  1.6400e-10    2.764e+03   -2.764e-09  
  1.6450e-10    2.764e+03   -2.764e-09  
  1.6500e-10    2.764e+03   -2.764e-09  
  1.6550e-10    2.764e+03   -2.764e-09  
  1.6600e-10    2.764e+03   -2.764e-09  
  1.6650e-10    2.764e+03   -2.764e-09  
  1.6700e-10    2.764e+03   -2.764e-09  
  1.6750e-10    2.764e+03   -2.764e-09  
  1.6800e-10    2.764e+03   -2.764e-09  
  1.6850e-10    2.764e+03   -2.764e-09  
  1.6900e-10    2.764e+03   -2.764e-09  
  1.6950e-10    2.764e+03   -2.764e-09  
  1.7000e-10    2.764e+03   -2.764e-09  
  1.7050e-10    2.764e+03   -2.764e-09  
  1.7100e-10    2.764e+03   -2.764e-09  
  1.7150e-10    2.764e+03   -2.764e-09  
  1.7200e-10    2.764e+03   -2.764e-09  
  1.7250e-10    2.764e+03   -2.764e-09  
  1.7300e-10    2.764e+03   -2.764e-09  
  1.7350e-10    2.764e+03   -2.764e-09  
  1.7400e-10    2.764e+03   -2.764e-09  
  1.7450e-10    2.764e+03   -2.764e-09  
  1.7500e-10    2.764e+03   -2.764e-09  
  1.7550e-10    2.764e+03   -2.764e-09  
  1.7600e-10    2.764e+03   -2.764e-09  
  1.7650e-10    2.764e+03   -2.764e-09  
  1.7700e-10    2.764e+03   -2.764e-09  
  1.7750e-10    2.764e+03   -2.764e-09  
  1.7800e-10    2.764e+03   -2.764e-09  
  1.7850e-10    2.764e+03   -2.764e-09  
  1.7900e-10    2.764e+03   -2.764e-09  
  1.7950e-10    2.764e+03   -2.764e-09  
  1.8000e-10    2.764e+03   -2.764e-09  
  1.8050e-10    2.764e+03   -2.764e-09  
  1.8100e-10    2.764e+03   -2.764e-09  
  1.8150e-10    2.764e+03   -2.764e-09  
  1.8200e-10    2.764e+03   -2.764e-09  
  1.8250e-10    2.764e+03   -2.764e-09  
  1.8300e-10    2.764e+03   -2.764e-09  
  1.8350e-10    2.764e+03   -2.764e-09  
  1.8400e-10    2.764e+03   -2.764e-09  
  1.8450e-10    2.764e+03   -2.764e-09  
  1.8500e-10    2.764e+03   -2.764e-09  
  1.8550e-10    2.764e+03   -2.764e-09  
  1.8600e-10    2.764e+03   -2.764e-09  
  1.8650e-10    2.764e+03   -2.764e-09  
  1.8700e-10    2.764e+03   -2.764e-09  
  1.8750e-10    2.764e+03   -2.764e-09  
  1.8800e-10    2.764e+03   -2.764e-09  
  1.8850e-10    2.764e+03   -2.764e-09  
  1.8900e-10    2.764e+03   -2.764e-09  
  1.8950e-10    2.764e+03   -2.764e-09  
  1.9000e-10    2.764e+03   -2.764e-09  
  1.9050e-10    2.764e+03   -2.764e-09  
  1.9100e-10    2.764e+03   -2.764e-09  
  1.9150e-10    2.764e+03   -2.764e-09  
  1.9200e-10    2.764e+03   -2.764e-09  
  1.9250e-10    2.764e+03   -2.764e-09  
  1.9300e-10    2.764e+03   -2.764e-09  
  1.9350e-10    2.764e+03   -2.764e-09  
  1.9400e-10    2.764e+03   -2.764e-09  
  1.9450e-10    2.764e+03   -2.764e-09  
  1.9500e-10    2.764e+03   -2.764e-09  
  1.9550e-10    2.764e+03   -2.764e-09  
  1.9600e-10    2.764e+03   -2.764e-09  
  1.9650e-10    2.764e+03   -2.764e-09  
  1.9700e-10    2.764e+03   -2.764e-09  
  1.9750e-10    2.764e+03   -2.764e-09  
  1.9800e-10    2.764e+03   -2.764e-09  
  1.9850e-10    2.764e+03   -2.764e-09  
  1.9900e-10    2.764e+03   -2.764e-09  
  1.9950e-10    2.764e+03   -2.764e-09  
  2.0000e-10    2.764e+03   -2.764e-09  
  2.0050e-10    2.764e+03   -2.764e-09  
  2.0100e-10    2.764e+03   -2.764e-09  
  2.0150e-10    2.764e+03   -2.764e-09  
  2.0200e-10    2.764e+03   -2.764e-09  
  2.0250e-10    2.764e+03   -2.764e-09  
  2.0300e-10    2.764e+03   -2.764e-09  
  2.0350e-10    2.764e+03   -2.764e-09  
  2.0400e-10    2.764e+03   -2.764e-09  
  2.0450e-10    2.764e+03   -2.764e-09  
  2.0500e-10    2.764e+03   -2.764e-09  
  2.0550e-10    2.764e+03   -2.764e-09  
  2.0600e-10    2.764e+03   -2.764e-09  
  2.0650e-10    2.764e+03   -2.764e-09  
  2.0700e-10    2.764e+03   -2.764e-09  
  2.0750e-10    2.764e+03   -2.764e-09  
  2.0800e-10    2.764e+03   -2.764e-09  
  2.0850e-10    2.764e+03   -2.764e-09  
  2.0900e-10    2.764e+03   -2.764e-09  
  2.0950e-10    2.764e+03   -2.764e-09  
  2.1000e-10    2.764e+03   -2.764e-09  
  2.1050e-10    2.764e+03   -2.764e-09  
  2.1100e-10    2.764e+03   -2.764e-09  
  2.1150e-10    2.764e+03   -2.764e-09  
  2.1200e-10    2.764e+03   -2.764e-09  
  2.1250e-10    2.764e+03   -2.764e-09  
  2.1300e-10    2.764e+03   -2.764e-09  
  2.1350e-10    2.764e+03   -2.764e-09  
  2.1400e-10    2.764e+03   -2.764e-09  
  2.1450e-10    2.764e+03   -2.764e-09  
  2.1500e-10    2.764e+03   -2.764e-09  
  2.1550e-10    2.764e+03   -2.764e-09  
  2.1600e-10    2.764e+03   -2.764e-09  
  2.1650e-10    2.764e+03   -2.764e-09  
  2.1700e-10    2.764e+03   -2.764e-09  
  2.1750e-10    2.764e+03   -2.764e-09  
  2.1800e-10    2.764e+03   -2.764e-09  
  2.1850e-10    2.764e+03   -2.764e-09  
  2.1900e-10    2.764e+03   -2.764e-09  
  2.1950e-10    2.764e+03   -2.764e-09  
  2.2000e-10    2.764e+03   -2.764e-09  
  2.2050e-10    2.764e+03   -2.764e-09  
  2.2100e-10    2.764e+03   -2.764e-09  
  2.2150e-10    2.764e+03   -2.764e-09  
  2.2200e-10    2.764e+03   -2.764e-09  
  2.2250e-10    2.764e+03   -2.764e-09  
  2.2300e-10    2.764e+03   -2.764e-09  
  2.2350e-10    2.764e+03   -2.764e-09  
  2.2400e-10    2.764e+03   -2.764e-09  
  2.2450e-10    2.764e+03   -2.764e-09  
  2.2500e-10    2.764e+03   -2.764e-09  
  2.2550e-10    2.764e+03   -2.764e-09  
  2.2600e-10    2.764e+03   -2.764e-09  
  2.2650e-10    2.764e+03   -2.764e-09  
  2.2700e-10    2.764e+03   -2.764e-09  
  2.2750e-10    2.764e+03   -2.764e-09  
  2.2800e-10    2.764e+03   -2.764e-09  
  2.2850e-10    2.764e+03   -2.764e-09  
  2.2900e-10    2.764e+03   -2.764e-09  
  2.2950e-10    2.764e+03   -2.764e-09  
  2.3000e-10    2.764e+03   -2.764e-09  
  2.3050e-10    2.764e+03   -2.764e-09  
  2.3100e-10    2.764e+03   -2.764e-09  
  2.3150e-10    2.764e+03   -2.764e-09  
  2.3200e-10    2.764e+03   -2.764e-09  
  2.3250e-10    2.764e+03   -2.764e-09  
  2.3300e-10    2.764e+03   -2.764e-09  
  2.3350e-10    2.764e+03   -2.764e-09  
  2.3400e-10    2.764e+03   -2.764e-09  
  2.3450e-10    2.764e+03   -2.764e-09  
  2.3500e-10    2.764e+03   -2.764e-09  
  2.3550e-10    2.764e+03   -2.764e-09  
  2.3600e-10    2.764e+03   -2.764e-09  
  2.3650e-10    2.764e+03   -2.764e-09  
  2.3700e-10    2.764e+03   -2.764e-09  
  2.3750e-10    2.764e+03   -2.764e-09  
  2.3800e-10    2.764e+03   -2.764e-09  
  2.3850e-10    2.764e+03   -2.764e-09  
  2.3900e-10    2.764e+03   -2.764e-09  
  2.3950e-10    2.764e+03   -2.764e-09  
  2.4000e-10    2.764e+03   -2.764e-09  
  2.4050e-10    2.764e+03   -2.764e-09  
  2.4100e-10    2.764e+03   -2.764e-09  
  2.4150e-10    2.764e+03   -2.764e-09  
  2.4200e-10    2.764e+03   -2.764e-09  
  2.4250e-10    2.764e+03   -2.764e-09  
  2.4300e-10    2.764e+03   -2.764e-09  
  2.4350e-10    2.764e+03   -2.764e-09  
  2.4400e-10    2.764e+03   -2.764e-09  
  2.4450e-10    2.764e+03   -2.764e-09  
  2.4500e-10    2.764e+03   -2.764e-09  
  2.4550e-10    2.764e+03   -2.764e-09  
  2.4600e-10    2.764e+03   -2.764e-09  
  2.4650e-10    2.764e+03   -2.764e-09  
  2.4700e-10    2.764e+03   -2.764e-09  
  2.4750e-10    2.764e+03   -2.764e-09  
  2.4800e-10    2.764e+03   -2.764e-09  
  2.4850e-10    2.764e+03   -2.764e-09  
  2.4900e-10    2.764e+03   -2.764e-09  
  2.4950e-10    2.764e+03   -2.764e-09  
  2.5050e-10    2.764e+03   -2.764e-09  
  2.5100e-10    2.764e+03   -1.092e-08  
  2.5150e-10    2.764e+03    4.192e-08  
  2.5200e-10    2.764e+03   -5.993e-09  
  2.5250e-10    2.764e+03    2.199e-08  
  2.5300e-10    2.764e+03    1.693e-08  
  2.5350e-10    2.764e+03    1.009e-08  
  2.5400e-10    2.764e+03    2.478e-09  
  2.5450e-10    2.764e+03   -1.093e-09  
  2.5500e-10    2.764e+03   -2.170e-08  
  2.5550e-10    2.764e+03   -2.475e-08  
  2.5600e-10    2.764e+03   -2.716e-08  
  2.5650e-10    2.764e+03   -2.896e-08  
  2.5700e-10    2.764e+03   -3.019e-08  
  2.5750e-10    2.764e+03   -3.093e-08  
  2.5800e-10    2.764e+03   -3.123e-08  
  2.5850e-10    2.764e+03   -3.117e-08  
  2.5900e-10    2.764e+03   -3.080e-08  
  2.5950e-10    2.764e+03   -3.017e-08  
  2.6000e-10    2.764e+03   -2.933e-08  
  2.6050e-10    2.764e+03   -2.832e-08  
  2.6100e-10    2.764e+03   -2.720e-08  
  2.6150e-10    2.764e+03   -2.597e-08  
  2.6200e-10    2.764e+03   -2.469e-08  
  2.6250e-10    2.764e+03   -2.336e-08  
  2.6300e-10    2.764e+03   -2.201e-08  
  2.6350e-10    2.764e+03   -2.066e-08  
  2.6400e-10    2.764e+03   -1.932e-08  
  2.6450e-10    2.764e+03   -1.800e-08  
  2.6500e-10    2.764e+03   -1.672e-08  
  2.6550e-10    2.764e+03   -1.548e-08  
  2.6600e-10    2.764e+03   -1.429e-08  
  2.6650e-10    2.764e+03   -1.314e-08  
  2.6700e-10    2.764e+03   -1.204e-08  
  2.6750e-10    2.764e+03   -1.100e-08  
  2.6800e-10    2.764e+03   -1.000e-08  
  2.6850e-10    2.764e+03   -9.049e-09  
  2.6900e-10    2.764e+03   -8.130e-09  
  2.6950e-10    2.764e+03   -1.008e-08  
  2.7000e-10    2.764e+03   -7.822e-09  
  2.7050e-10    2.764e+03   -6.695e-09  
  2.7100e-10    2.764e+03    1.510e-08  
  2.7150e-10    2.764e+03    1.959e-08  
  2.7200e-10    2.764e+03   -6.080e-09  
  2.7250e-10    2.764e+03   -6.809e-09  
  2.7300e-10    2.764e+03    8.545e-08  
  2.7350e-10    2.764e+03   -1.411e-08  
  2.7400e-10    2.764e+03   -1.244e-08  
  2.7450e-10    2.764e+03   -1.069e-08  
  2.7500e-10    2.764e+03   -9.536e-09  
  2.7550e-10    2.764e+03   -8.565e-09  
  2.7600e-10    2.764e+03   -7.708e-09  
  2.7650e-10    2.764e+03   -6.943e-09  
  2.7700e-10    2.764e+03   -6.259e-09  
  2.7750e-10    2.764e+03   -5.649e-09  
  2.7800e-10    2.764e+03   -5.104e-09  
  2.7850e-10    2.764e+03   -4.618e-09  
  2.7900e-10    2.764e+03   -4.186e-09  
  2.7950e-10    2.764e+03   -3.803e-09  
  2.8000e-10    2.764e+03   -3.465e-09  
  2.8050e-10    2.764e+03    2.635e-09  
  2.8100e-10    2.764e+03    4.038e-09  
  2.8150e-10    2.764e+03   -3.138e-09  
  2.8200e-10    2.764e+03   -2.859e-09  
  2.8250e-10    2.764e+03   -2.642e-09  
  2.8300e-10    2.764e+03   -2.457e-09  
  2.8350e-10    2.764e+03   -2.296e-09  
  2.8400e-10    2.764e+03   -1.821e-09  
  2.8450e-10    2.764e+03   -2.040e-09  
  2.8500e-10    2.764e+03   -1.919e-09  
  2.8550e-10    2.764e+03   -1.802e-09  
  2.8600e-10    2.764e+03   -1.672e-09  
  2.8650e-10    2.764e+03   -1.509e-09  
  2.8700e-10    2.764e+03   -1.275e-09  
  2.8750e-10    2.764e+03   -9.120e-10  
  2.8800e-10    2.764e+03   -6.444e-09  
  2.8850e-10    2.764e+03   -7.296e-08  
  2.8900e-10    2.764e+03    8.988e-08  
  2.8950e-10    2.764e+03   -2.713e-07  
  2.9000e-10    2.764e+03   -8.170e-08  
  2.9050e-10    2.764e+03   -1.335e-08  
  2.9100e-10    2.764e+03   -1.211e-08  
  2.9150e-10    2.764e+03    5.090e-08  
  2.9200e-10    2.764e+03    4.332e-08  
  2.9250e-10    2.764e+03   -9.116e-09  
  2.9300e-10    2.764e+03   -7.793e-09  
  2.9350e-10    2.764e+03   -7.362e-09  
  2.9400e-10    2.764e+03   -7.029e-09  
  2.9450e-10    2.764e+03   -6.762e-09  
  2.9500e-10    2.764e+03   -6.553e-09  
  2.9550e-10    2.764e+03   -6.399e-09  
  2.9600e-10    2.764e+03   -6.300e-09  
  2.9650e-10    2.764e+03   -6.257e-09  
  2.9700e-10    2.764e+03   -6.274e-09  
  2.9750e-10    2.764e+03   -6.356e-09  
  2.9800e-10    2.764e+03   -6.506e-09  
  2.9850e-10    2.764e+03   -6.732e-09  
  2.9900e-10    2.764e+03   -7.039e-09  
  2.9950e-10    2.764e+03   -7.433e-09  
  3.0000e-10    2.764e+03   -7.917e-09  
  3.0050e-10    2.764e+03   -8.497e-09  
  3.0100e-10    2.764e+03   -9.172e-09  
  3.0150e-10    2.764e+03   -9.944e-09  
  3.0200e-10    2.764e+03   -1.081e-08  
  3.0250e-10    2.764e+03   -1.176e-08  
  3.0300e-10    2.764e+03   -1.281e-08  
  3.0350e-10    2.764e+03   -7.019e-08  
  3.0400e-10    2.764e+03   -2.912e-08  
  3.0450e-10    2.764e+03   -2.739e-08  
  3.0500e-10    2.764e+03   -2.755e-08  
  3.0550e-10    2.764e+03   -2.799e-08  
  3.0600e-10    2.764e+03   -2.861e-08  
  3.0650e-10    2.764e+03   -2.938e-08  
  3.0700e-10    2.764e+03   -3.029e-08  
  3.0750e-10    2.764e+03   -3.133e-08  
  3.0800e-10    2.764e+03   -3.248e-08  
  3.0850e-10    2.764e+03   -3.373e-08  
  3.0900e-10    2.764e+03   -3.504e-08  
  3.0950e-10    2.764e+03   -3.636e-08  
  3.1000e-10    2.764e+03   -3.761e-08  
  3.1050e-10    2.764e+03   -3.870e-08  
  3.1100e-10    2.764e+03    1.390e-07  
  3.1150e-10    2.764e+03   -3.922e-07  
  3.1200e-10    2.764e+03   -2.218e-08  
  3.1250e-10    2.764e+03   -1.592e-06  
  3.1300e-10    2.764e+03   -2.732e-07  
  3.1350e-10    2.764e+03   -1.468e-06  
  3.1400e-10    2.764e+03    7.059e-08  
  3.1450e-10    2.764e+03   -4.333e-06  
  3.1500e-10    2.764e+03    1.239e-07  
  3.1550e-10    2.764e+03    1.579e-07  
  3.1600e-10    2.764e+03    4.442e-07  
  3.1650e-10    2.764e+03    8.021e-07  
  3.1700e-10    2.764e+03   -5.941e-08  
  3.1750e-10    2.764e+03   -1.155e-05  
  3.1800e-10    2.764e+03    2.501e-06  
  3.1850e-10    2.764e+03    6.222e-07  
  3.1900e-10    2.764e+03   -6.768e-06  
  3.1950e-10    2.764e+03    1.740e-06  
  3.2000e-10    2.764e+03   -1.403e-06  
  3.2050e-10    2.764e+03    3.930e-07  
  3.2100e-10    2.764e+03   -4.763e-06  
  3.2150e-10    2.764e+03    1.548e-06  
  3.2200e-10    2.764e+03    2.303e-07  
  3.2250e-10    2.764e+03   -4.542e-06  
  3.2300e-10    2.764e+03    1.267e-06  
  3.2350e-10    2.764e+03    8.816e-08  
  3.2400e-10    2.764e+03   -2.049e-06  
  3.2450e-10    2.764e+03    6.002e-07  
  3.2500e-10    2.764e+03   -3.214e-07  
  3.2550e-10    2.764e+03    1.760e-07  
  3.2600e-10    2.764e+03    1.735e-07  
  3.2650e-10    2.764e+03    1.394e-07  
  3.2700e-10    2.764e+03    9.975e-08  
  3.2750e-10    2.764e+03   -1.334e-08  
  3.2800e-10    2.764e+03    9.741e-08  
  3.2850e-10    2.764e+03    9.392e-08  
  3.2900e-10    2.764e+03    1.115e-07  
  3.2950e-10    2.764e+03    1.297e-07  
  3.3000e-10    2.764e+03    1.466e-07  
  3.3050e-10    2.764e+03    1.620e-07  
  3.3100e-10    2.764e+03    1.761e-07  
  3.3150e-10    2.764e+03    1.890e-07  
  3.3200e-10    2.764e+03    2.006e-07  
  3.3250e-10    2.764e+03    2.112e-07  
  3.3300e-10    2.764e+03    2.208e-07  
  3.3350e-10    2.764e+03    2.293e-07  
  3.3400e-10    2.764e+03    2.369e-07  
  3.3450e-10    2.764e+03    2.435e-07  
  3.3500e-10    2.764e+03    2.492e-07  
  3.3550e-10    2.764e+03    2.538e-07  
  3.3600e-10    2.764e+03    2.574e-07  
  3.3650e-10    2.764e+03    2.599e-07  
  3.3700e-10    2.764e+03    2.613e-07  
  3.3750e-10    2.764e+03    2.614e-07  
  3.3800e-10    2.764e+03    2.603e-07  
  3.3850e-10    2.764e+03    2.577e-07  
  3.3900e-10    2.764e+03    2.536e-07  
  3.3950e-10    2.764e+03    2.477e-07  
  3.4000e-10    2.764e+03    2.400e-07  
  3.4050e-10    2.764e+03    2.300e-07  
  3.4100e-10    2.764e+03    2.175e-07  
  3.4150e-10    2.764e+03    2.020e-07  
  3.4200e-10    2.764e+03    1.829e-07  
  3.4250e-10    2.764e+03    1.594e-07  
  3.4300e-10    2.764e+03    1.304e-07  
  3.4350e-10    2.764e+03    9.468e-08  
  3.4400e-10    2.764e+03   -8.250e-07  
  3.4450e-10    2.764e+03    8.524e-08  
  3.4500e-10    2.764e+03   -1.382e-06  
  3.4550e-10    2.764e+03    6.367e-07  
  3.4600e-10    2.764e+03    3.718e-07  
  3.4650e-10    2.764e+03    1.688e-06  
  3.4700e-10    2.764e+03    5.995e-07  
  3.4750e-10    2.764e+03    2.851e-06  
  3.4800e-10    2.764e+03    2.194e-06  
  3.4850e-10    2.764e+03    1.421e-06  
  3.4900e-10    2.764e+03    5.577e-06  
  3.4950e-10    2.764e+03    2.776e-06  
  3.5000e-10    2.764e+03    7.796e-07  
  3.5050e-10    2.764e+03   -1.070e-06  
  3.5100e-10    2.764e+03   -3.018e-06  
  3.5150e-10    2.764e+03    1.027e-06  
  3.5200e-10    2.764e+03   -4.945e-06  
  3.5250e-10    2.764e+03   -5.519e-06  
  3.5300e-10    2.764e+03   -6.103e-06  
  3.5350e-10    2.764e+03   -6.705e-06  
  3.5400e-10    2.764e+03   -7.321e-06  
  3.5450e-10    2.764e+03   -7.943e-06  
  3.5500e-10    2.764e+03   -8.565e-06  
  3.5550e-10    2.764e+03   -9.173e-06  
  3.5600e-10    2.764e+03   -9.754e-06  
  3.5650e-10    2.764e+03   -1.029e-05  
  3.5700e-10    2.764e+03   -1.077e-05  
  3.5750e-10    2.764e+03   -1.118e-05  
  3.5800e-10    2.764e+03   -1.150e-05  
  3.5850e-10    2.764e+03   -1.178e-05  
  3.5900e-10    2.764e+03   -1.207e-05  
  3.5950e-10    2.764e+03   -1.241e-05  
  3.6000e-10    2.764e+03   -1.281e-05  
  3.6050e-10    2.764e+03   -1.326e-05  
  3.6100e-10    2.764e+03   -1.372e-05  
  3.6150e-10    2.764e+03   -1.420e-05  
  3.6200e-10    2.764e+03   -1.469e-05  
  3.6250e-10    2.764e+03   -1.517e-05  
  3.6300e-10    2.764e+03   -1.565e-05  
  3.6350e-10    2.764e+03   -1.612e-05  
  3.6400e-10    2.764e+03   -1.657e-05  
  3.6450e-10    2.764e+03   -1.700e-05  
  3.6500e-10    2.764e+03   -1.740e-05  
  3.6550e-10    2.764e+03   -1.777e-05  
  3.6600e-10    2.764e+03   -1.808e-05  
  3.6650e-10    2.764e+03   -1.832e-05  
  3.6700e-10    2.764e+03   -1.847e-05  
  3.6750e-10    2.764e+03   -1.852e-05  
  3.6800e-10    2.764e+03   -1.842e-05  
  3.6850e-10    2.764e+03   -1.814e-05  
  3.6900e-10    2.764e+03   -1.767e-05  
  3.6950e-10    2.764e+03   -1.697e-05  
  3.7000e-10    2.764e+03   -1.603e-05  
  3.7050e-10    2.764e+03   -1.488e-05  
  3.7100e-10    2.764e+03   -1.364e-05  
  3.7150e-10    2.764e+03   -1.253e-05  
  3.7200e-10    2.764e+03   -1.162e-05  
  3.7250e-10    2.764e+03   -1.087e-05  
  3.7300e-10    2.764e+03   -1.023e-05  
  3.7350e-10    2.764e+03   -9.667e-06  
  3.7400e-10    2.764e+03   -9.138e-06  
  3.7450e-10    2.764e+03   -8.614e-06  
  3.7500e-10    2.764e+03   -8.077e-06  
  3.7550e-10    2.764e+03   -7.527e-06  
  3.7600e-10    2.764e+03   -6.976e-06  
  3.7650e-10    2.764e+03   -6.441e-06  
  3.7700e-10    2.764e+03   -5.938e-06  
  3.7750e-10    2.764e+03   -5.476e-06  
  3.7800e-10    2.764e+03   -5.057e-06  
  3.7850e-10    2.764e+03   -4.682e-06  
  3.7900e-10    2.764e+03   -4.345e-06  
  3.7950e-10    2.764e+03   -4.043e-06  
  3.8000e-10    2.764e+03   -3.772e-06  
  3.8050e-10    2.764e+03   -3.529e-06  
  3.8100e-10    2.764e+03   -3.310e-06  
  3.8150e-10    2.764e+03   -3.113e-06  
  3.8200e-10    2.764e+03   -2.934e-06  
  3.8250e-10    2.764e+03   -2.772e-06  
  3.8300e-10    2.764e+03   -2.626e-06  
  3.8350e-10    2.764e+03   -2.492e-06  
  3.8400e-10    2.764e+03   -2.370e-06  
  3.8450e-10    2.764e+03   -2.259e-06  
  3.8500e-10    2.764e+03   -2.157e-06  
  3.8550e-10    2.764e+03   -2.063e-06  
  3.8600e-10    2.764e+03   -1.977e-06  
  3.8650e-10    2.764e+03   -1.898e-06  
  3.8700e-10    2.764e+03   -1.824e-06  
  3.8750e-10    2.764e+03   -1.756e-06  
  3.8800e-10    2.764e+03   -1.692e-06  
  3.8850e-10    2.764e+03   -1.633e-06  
  3.8900e-10    2.764e+03   -1.578e-06  
  3.8950e-10    2.764e+03   -1.527e-06  
  3.9000e-10    2.764e+03   -1.479e-06  
  3.9050e-10    2.764e+03   -1.433e-06  
  3.9100e-10    2.764e+03   -1.391e-06  
  3.9150e-10    2.764e+03   -1.351e-06  
  3.9200e-10    2.764e+03   -1.313e-06  
  3.9250e-10    2.764e+03   -1.277e-06  
  3.9300e-10    2.764e+03   -1.243e-06  
  3.9350e-10    2.764e+03   -1.211e-06  
  3.9400e-10    2.764e+03   -1.180e-06  
  3.9450e-10    2.764e+03   -1.151e-06  
  3.9500e-10    2.764e+03   -1.123e-06  
  3.9550e-10    2.764e+03   -1.097e-06  
  3.9600e-10    2.764e+03   -1.072e-06  
  3.9650e-10    2.764e+03   -1.048e-06  
  3.9700e-10    2.764e+03   -1.025e-06  
  3.9750e-10    2.764e+03   -1.002e-06  
  3.9800e-10    2.764e+03   -9.813e-07  
  3.9850e-10    2.764e+03   -9.610e-07  
  3.9900e-10    2.764e+03   -9.415e-07  
  3.9950e-10    2.764e+03   -9.227e-07  
  4.0000e-10    2.764e+03   -9.047e-07  
  4.0050e-10    2.764e+03   -8.874e-07  
  4.0100e-10    2.764e+03   -8.708e-07  
  4.0150e-10    2.764e+03   -8.547e-07  
  4.0200e-10    2.764e+03   -8.393e-07  
  4.0250e-10    2.764e+03   -8.244e-07  
  4.0300e-10    2.764e+03   -8.100e-07  
  4.0350e-10    2.764e+03   -7.962e-07  
  4.0400e-10    2.764e+03   -7.829e-07  
  4.0450e-10    2.764e+03   -7.700e-07  
  4.0500e-10    2.764e+03   -7.576e-07  
  4.0550e-10    2.764e+03   -7.457e-07  
  4.0600e-10    2.764e+03   -7.342e-07  
  4.0650e-10    2.764e+03   -7.231e-07  
  4.0700e-10    2.764e+03   -7.124e-07  
  4.0750e-10    2.764e+03   -7.021e-07  
  4.0800e-10    2.764e+03   -6.923e-07  
  4.0850e-10    2.764e+03   -6.828e-07  
  4.0900e-10    2.764e+03   -6.737e-07  
  4.0950e-10    2.764e+03   -6.650e-07  
  4.1000e-10    2.764e+03   -6.566e-07  
  4.1050e-10    2.764e+03   -6.486e-07  
  4.1100e-10    2.764e+03   -6.409e-07  
  4.1150e-10    2.764e+03   -6.336e-07  
  4.1200e-10    2.764e+03   -6.266e-07  
  4.1250e-10    2.764e+03   -6.288e-07  
  4.1300e-10    2.764e+03   -6.179e-07  
  4.1350e-10    2.764e+03   -6.111e-07  
  4.1400e-10    2.764e+03   -6.047e-07  
  4.1450e-10    2.764e+03   -5.987e-07  
  4.1500e-10    2.764e+03   -5.931e-07  
  4.1550e-10    2.764e+03   -5.878e-07  
  4.1600e-10    2.764e+03   -5.828e-07  
  4.1650e-10    2.764e+03   -5.782e-07  
  4.1700e-10    2.764e+03   -5.739e-07  
  4.1750e-10    2.764e+03   -5.700e-07  
  4.1800e-10    2.764e+03   -5.665e-07  
  4.1850e-10    2.764e+03   -5.633e-07  
  4.1900e-10    2.764e+03   -5.605e-07  
  4.1950e-10    2.764e+03   -5.582e-07  
  4.2000e-10    2.764e+03   -5.562e-07  
  4.2050e-10    2.764e+03   -5.546e-07  
  4.2100e-10    2.764e+03   -5.534e-07  
  4.2150e-10    2.764e+03   -5.527e-07  
  4.2200e-10    2.764e+03   -5.523e-07  
  4.2250e-10    2.764e+03   -5.523e-07  
  4.2300e-10    2.764e+03   -5.527e-07  
  4.2350e-10    2.764e+03   -5.534e-07  
  4.2400e-10    2.764e+03   -5.543e-07  
  4.2450e-10    2.764e+03   -5.554e-07  
  4.2500e-10    2.764e+03   -5.567e-07  
  4.2550e-10    2.764e+03   -5.580e-07  
  4.2600e-10    2.764e+03   -5.592e-07  
  4.2650e-10    2.764e+03   -5.602e-07  
  4.2700e-10    2.764e+03   -5.609e-07  
  4.2750e-10    2.764e+03   -5.611e-07  
  4.2800e-10    2.764e+03   -5.607e-07  
  4.2850e-10    2.764e+03   -5.594e-07  
  4.2900e-10    2.764e+03   -5.572e-07  
  4.2950e-10    2.764e+03   -5.537e-07  
  4.3000e-10    2.764e+03   -5.488e-07  
  4.3050e-10    2.764e+03   -5.423e-07  
  4.3100e-10    2.764e+03   -5.340e-07  
  4.3150e-10    2.764e+03   -5.235e-07  
  4.3200e-10    2.764e+03   -5.107e-07  
  4.3250e-10    2.764e+03   -4.953e-07  
  4.3300e-10    2.764e+03   -4.770e-07  
  4.3350e-10    2.764e+03   -4.554e-07  
  4.3400e-10    2.764e+03   -4.301e-07  
  4.3450e-10    2.764e+03   -4.008e-07  
  4.3500e-10    2.764e+03   -3.669e-07  
  4.3550e-10    2.764e+03   -3.278e-07  
  4.3600e-10    2.764e+03   -2.827e-07  
  4.3650e-10    2.764e+03   -2.307e-07  
  4.3700e-10    2.764e+03   -1.706e-07  
  4.3750e-10    2.764e+03   -1.010e-07  
  4.3800e-10    2.764e+03   -2.018e-08  
  4.3850e-10    2.764e+03    7.415e-08  
  4.3900e-10    2.764e+03    1.846e-07  
  4.3950e-10    2.764e+03    3.143e-07  
  4.4000e-10    2.764e+03    4.668e-07  
  4.4050e-10    2.764e+03    6.459e-07  
  4.4100e-10    2.764e+03    8.553e-07  
  4.4150e-10    2.764e+03    1.098e-06  
  4.4200e-10    2.764e+03    1.376e-06  
  4.4250e-10    2.764e+03    1.686e-06  
  4.4300e-10    2.764e+03    2.022e-06  
  4.4350e-10    2.764e+03    2.367e-06  
  4.4400e-10    2.764e+03    2.688e-06  
  4.4450e-10    2.764e+03    2.928e-06  
  4.4500e-10    2.764e+03    2.991e-06  
  4.4550e-10    2.764e+03    2.723e-06  
  4.4600e-10    2.764e+03    1.893e-06  
  4.4650e-10    2.764e+03    2.176e-07  
  4.4700e-10    2.764e+03   -2.527e-06  
  4.4750e-10    2.764e+03   -6.323e-06  
  4.4800e-10    2.764e+03   -1.083e-05  
  4.4850e-10    2.764e+03   -1.554e-05  
  4.4900e-10    2.764e+03   -2.006e-05  
  4.4950e-10    2.764e+03   -2.424e-05  
  4.5000e-10    2.764e+03   -2.810e-05  
  4.5050e-10    2.764e+03   -3.175e-05  
  4.5100e-10    2.764e+03   -3.520e-05  
  4.5150e-10    2.764e+03   -3.852e-05  
  4.5200e-10    2.764e+03   -4.165e-05  
  4.5250e-10    2.764e+03   -4.454e-05  
  4.5300e-10    2.764e+03   -4.708e-05  
  4.5350e-10    2.764e+03   -4.922e-05  
  4.5400e-10    2.764e+03   -5.096e-05  
  4.5450e-10    2.764e+03   -5.236e-05  
  4.5500e-10    2.764e+03   -5.346e-05  
  4.5550e-10    2.764e+03   -5.431e-05  
  4.5600e-10    2.764e+03   -5.494e-05  
  4.5650e-10    2.764e+03   -5.540e-05  
  4.5700e-10    2.764e+03   -5.569e-05  
  4.5750e-10    2.764e+03   -5.585e-05  
  4.5800e-10    2.764e+03   -5.588e-05  
  4.5850e-10    2.764e+03   -5.580e-05  
  4.5900e-10    2.764e+03   -5.562e-05  
  4.5950e-10    2.764e+03   -5.533e-05  
  4.6000e-10    2.764e+03   -5.494e-05  
  4.6050e-10    2.764e+03   -5.444e-05  
  4.6100e-10    2.764e+03   -5.376e-05  
  4.6150e-10    2.764e+03   -5.267e-05  
  4.6200e-10    2.764e+03   -5.095e-05  
  4.6250e-10    2.764e+03   -4.866e-05  
  4.6300e-10    2.764e+03   -4.596e-05  
  4.6350e-10    2.764e+03   -4.297e-05  
  4.6400e-10    2.764e+03   -3.983e-05  
  4.6450e-10    2.764e+03   -3.668e-05  
  4.6500e-10    2.764e+03   -3.365e-05  
  4.6550e-10    2.764e+03   -3.083e-05  
  4.6600e-10    2.764e+03   -2.824e-05  
  4.6650e-10    2.764e+03   -2.588e-05  
  4.6700e-10    2.764e+03   -2.372e-05  
  4.6750e-10    2.764e+03   -2.175e-05  
  4.6800e-10    2.764e+03   -1.993e-05  
  4.6850e-10    2.764e+03   -1.826e-05  
  4.6900e-10    2.764e+03   -1.673e-05  
  4.6950e-10    2.764e+03   -1.531e-05  
  4.7000e-10    2.764e+03   -1.401e-05  
  4.7050e-10    2.764e+03   -1.281e-05  
  4.7100e-10    2.764e+03   -1.170e-05  
  4.7150e-10    2.764e+03   -1.069e-05  
  4.7200e-10    2.764e+03   -9.756e-06  
  4.7250e-10    2.764e+03   -8.899e-06  
  4.7300e-10    2.764e+03   -8.114e-06  
  4.7350e-10    2.764e+03   -7.394e-06  
  4.7400e-10    2.764e+03   -6.735e-06  
  4.7450e-10    2.764e+03   -6.133e-06  
  4.7500e-10    2.764e+03   -5.582e-06  
  4.7550e-10    2.764e+03   -5.079e-06  
  4.7600e-10    2.764e+03   -4.620e-06  
  4.7650e-10    2.764e+03   -4.201e-06  
  4.7700e-10    2.764e+03   -3.819e-06  
  4.7750e-10    2.764e+03   -3.471e-06  
  4.7800e-10    2.764e+03   -3.154e-06  
  4.7850e-10    2.764e+03   -2.866e-06  
  4.7900e-10    2.764e+03   -2.604e-06  
  4.7950e-10    2.764e+03   -2.365e-06  
  4.8000e-10    2.764e+03   -2.148e-06  
  4.8050e-10    2.764e+03   -1.951e-06  
  4.8100e-10    2.764e+03   -1.771e-06  
  4.8150e-10    2.764e+03   -1.608e-06  
  4.8200e-10    2.764e+03   -1.460e-06  
  4.8250e-10    2.764e+03   -1.326e-06  
  4.8300e-10    2.764e+03   -1.204e-06  
  4.8350e-10    2.764e+03   -1.093e-06  
  4.8400e-10    2.764e+03   -9.922e-07  
  4.8450e-10    2.764e+03   -9.009e-07  
  4.8500e-10    2.764e+03   -8.180e-07  
  4.8550e-10    2.764e+03   -7.427e-07  
  4.8600e-10    2.764e+03   -6.745e-07  
  4.8650e-10    2.764e+03   -6.125e-07  
  4.8700e-10    2.764e+03   -5.563e-07  
  4.8750e-10    2.764e+03   -5.053e-07  
  4.8800e-10    2.764e+03   -4.590e-07  
  4.8850e-10    2.764e+03   -4.170e-07  
  4.8900e-10    2.764e+03   -3.789e-07  
  4.8950e-10    2.764e+03   -3.444e-07  
  4.9000e-10    2.764e+03   -3.130e-07  
  4.9050e-10    2.764e+03   -2.845e-07  
  4.9100e-10    2.764e+03   -2.587e-07  
  4.9150e-10    2.764e+03   -2.352e-07  
  4.9200e-10    2.764e+03   -2.141e-07  
  4.9250e-10    2.764e+03   -1.948e-07  
  4.9300e-10    2.764e+03   -1.773e-07  
  4.9350e-10    2.764e+03   -1.614e-07  
  4.9400e-10    2.764e+03   -1.470e-07  
  4.9450e-10    2.764e+03   -1.339e-07  
  4.9500e-10    2.764e+03   -1.220e-07  
  4.9550e-10    2.764e+03   -1.112e-07  
  4.9600e-10    2.764e+03   -1.015e-07  
  4.9650e-10    2.764e+03   -9.260e-08  
  4.9700e-10    2.764e+03   -8.455e-08  
  4.9750e-10    2.764e+03   -7.725e-08  
  4.9800e-10    2.764e+03   -7.060e-08  
  4.9850e-10    2.764e+03   -6.456e-08  
  4.9900e-10    2.764e+03   -5.909e-08  
  4.9950e-10    2.764e+03   -5.412e-08  
  5.0000e-10    2.764e+03   -4.961e-08  
  5.0050e-10    2.764e+03   -4.549e-08  
  5.0100e-10    2.764e+03   -4.177e-08  
  5.0150e-10    2.764e+03   -3.838e-08  
  5.0200e-10    2.764e+03   -3.531e-08  
  5.0250e-10    2.764e+03   -3.251e-08  
  5.0300e-10    2.764e+03   -2.997e-08  
  5.0350e-10    2.764e+03   -2.765e-08  
  5.0400e-10    2.764e+03   -2.555e-08  
  5.0450e-10    2.764e+03   -2.365e-08  
  5.0500e-10    2.764e+03   -2.190e-08  
  5.0550e-10    2.764e+03   -2.032e-08  
  5.0600e-10    2.764e+03   -1.888e-08  
  5.0650e-10    2.764e+03   -1.757e-08  
  5.0700e-10    2.764e+03   -1.638e-08  
  5.0750e-10    2.764e+03   -1.530e-08  
  5.0800e-10    2.764e+03   -1.431e-08  
  5.0850e-10    2.764e+03   -1.341e-08  
  5.0900e-10    2.764e+03   -1.259e-08  
  5.0950e-10    2.764e+03   -1.184e-08  
  5.1000e-10    2.764e+03   -1.116e-08  
  5.1050e-10    2.764e+03   -1.054e-08  
  5.1100e-10    2.764e+03   -9.970e-09  
  5.1150e-10    2.764e+03   -9.453e-09  
  5.1200e-10    2.764e+03   -8.980e-09  
  5.1250e-10    2.764e+03   -8.549e-09  
  5.1300e-10    2.764e+03   -8.155e-09  
  5.1350e-10    2.764e+03   -7.794e-09  
  5.1400e-10    2.764e+03   -7.464e-09  
  5.1450e-10    2.764e+03   -7.163e-09  
  5.1500e-10    2.764e+03   -6.887e-09  
  5.1550e-10    2.764e+03   -6.634e-09  
  5.1600e-10    2.764e+03   -6.402e-09  
  5.1650e-10    2.764e+03   -6.190e-09  
  5.1700e-10    2.764e+03   -5.994e-09  
  5.1750e-10    2.764e+03   -5.815e-09  
  5.1800e-10    2.764e+03   -5.651e-09  
  5.1850e-10    2.764e+03   -5.500e-09  
  5.1900e-10    2.764e+03   -5.360e-09  
  5.1950e-10    2.764e+03   -5.232e-09  
  5.2000e-10    2.764e+03   -5.114e-09  
  5.2050e-10    2.764e+03   -5.005e-09  
  5.2100e-10    2.764e+03   -4.905e-09  
  5.2150e-10    2.764e+03   -4.811e-09  
  5.2200e-10    2.764e+03   -4.725e-09  
  5.2250e-10    2.764e+03   -4.646e-09  
  5.2300e-10    2.764e+03   -4.572e-09  
  5.2350e-10    2.764e+03   -4.503e-09  
  5.2400e-10    2.764e+03   -4.440e-09  
  5.2450e-10    2.764e+03   -4.381e-09  
  5.2500e-10    2.764e+03   -4.325e-09  
  5.2550e-10    2.764e+03   -4.274e-09  
  5.2600e-10    2.764e+03   -4.226e-09  
  5.2650e-10    2.764e+03   -4.181e-09  
  5.2700e-10    2.764e+03   -4.139e-09  
  5.2750e-10    2.764e+03   -4.100e-09  
  5.2800e-10    2.764e+03   -4.063e-09  
  5.2850e-10    2.764e+03   -4.029e-09  
  5.2900e-10    2.764e+03   -3.996e-09  
  5.2950e-10    2.764e+03   -3.965e-09  
  5.3000e-10    2.764e+03   -3.937e-09  
  5.3050e-10    2.764e+03   -3.909e-09  
  5.3100e-10    2.764e+03   -3.883e-09  
  5.3150e-10    2.764e+03   -3.859e-09  
  5.3200e-10    2.764e+03   -3.836e-09  
  5.3250e-10    2.764e+03   -3.814e-09  
  5.3300e-10    2.764e+03   -3.793e-09  
  5.3350e-10    2.764e+03   -3.773e-09  
  5.3400e-10    2.764e+03   -3.754e-09  
  5.3450e-10    2.764e+03   -3.736e-09  
  5.3500e-10    2.764e+03   -3.719e-09  
  5.3550e-10    2.764e+03   -3.702e-09  
  5.3600e-10    2.764e+03   -3.686e-09  
  5.3650e-10    2.764e+03   -3.671e-09  
  5.3700e-10    2.764e+03   -3.656e-09  
  5.3750e-10    2.764e+03   -3.642e-09  
  5.3800e-10    2.764e+03   -3.629e-09  
  5.3850e-10    2.764e+03   -3.616e-09  
  5.3900e-10    2.764e+03   -3.603e-09  
  5.3950e-10    2.764e+03   -3.591e-09  
  5.4000e-10    2.764e+03   -3.580e-09  
  5.4050e-10    2.764e+03   -3.568e-09  
  5.4100e-10    2.764e+03   -3.557e-09  
  5.4150e-10    2.764e+03   -3.547e-09  
  5.4200e-10    2.764e+03   -3.536e-09  
  5.4250e-10    2.764e+03   -3.526e-09  
  5.4300e-10    2.764e+03   -3.517e-09  
  5.4350e-10    2.764e+03   -3.507e-09  
  5.4400e-10    2.764e+03   -3.498e-09  
  5.4450e-10    2.764e+03   -3.489e-09  
  5.4500e-10    2.764e+03   -3.481e-09  
  5.4550e-10    2.764e+03   -3.472e-09  
  5.4600e-10    2.764e+03   -3.464e-09  
  5.4650e-10    2.764e+03   -3.456e-09  
  5.4700e-10    2.764e+03   -3.448e-09  
  5.4750e-10    2.764e+03   -3.440e-09  
  5.4800e-10    2.764e+03   -3.433e-09  
  5.4850e-10    2.764e+03   -3.426e-09  
  5.4900e-10    2.764e+03   -3.419e-09  
  5.4950e-10    2.764e+03   -3.412e-09  
  5.5000e-10    2.764e+03   -3.405e-09  
  5.5050e-10    2.764e+03   -3.398e-09  
  5.5100e-10    2.764e+03   -3.392e-09  
  5.5150e-10    2.764e+03   -3.385e-09  
  5.5200e-10    2.764e+03   -3.379e-09  
  5.5250e-10    2.764e+03   -3.373e-09  
  5.5300e-10    2.764e+03   -3.367e-09  
  5.5350e-10    2.764e+03   -3.361e-09  
  5.5400e-10    2.764e+03   -3.355e-09  
  5.5450e-10    2.764e+03   -3.349e-09  
  5.5500e-10    2.764e+03   -3.344e-09  
  5.5550e-10    2.764e+03   -3.338e-09  
  5.5600e-10    2.764e+03   -3.333e-09  
  5.5650e-10    2.764e+03   -3.328e-09  
  5.5700e-10    2.764e+03   -3.322e-09  
  5.5750e-10    2.764e+03   -3.317e-09  
  5.5800e-10    2.764e+03   -3.312e-09  
  5.5850e-10    2.764e+03   -3.307e-09  
  5.5900e-10    2.764e+03   -3.302e-09  
  5.5950e-10    2.764e+03   -3.298e-09  
  5.6000e-10    2.764e+03   -3.293e-09  
  5.6050e-10    2.764e+03   -3.288e-09  
  5.6100e-10    2.764e+03   -3.284e-09  
  5.6150e-10    2.764e+03   -3.279e-09  
  5.6200e-10    2.764e+03   -3.275e-09  
  5.6250e-10    2.764e+03   -3.270e-09  
  5.6300e-10    2.764e+03   -3.266e-09  
  5.6350e-10    2.764e+03   -3.262e-09  
  5.6400e-10    2.764e+03   -3.258e-09  
  5.6450e-10    2.764e+03   -3.254e-09  
  5.6500e-10    2.764e+03   -3.250e-09  
  5.6550e-10    2.764e+03   -3.246e-09  
  5.6600e-10    2.764e+03   -3.242e-09  
  5.6650e-10    2.764e+03   -3.238e-09  
  5.6700e-10    2.764e+03   -3.234e-09  
  5.6750e-10    2.764e+03   -3.231e-09  
  5.6800e-10    2.764e+03   -3.227e-09  
  5.6850e-10    2.764e+03   -3.223e-09  
  5.6900e-10    2.764e+03   -3.220e-09  
  5.6950e-10    2.764e+03   -3.216e-09  
  5.7000e-10    2.764e+03   -3.212e-09  
  5.7050e-10    2.764e+03   -3.209e-09  
  5.7100e-10    2.764e+03   -3.206e-09  
  5.7150e-10    2.764e+03   -3.202e-09  
  5.7200e-10    2.764e+03   -3.199e-09  
  5.7250e-10    2.764e+03   -3.195e-09  
  5.7300e-10    2.764e+03   -3.192e-09  
  5.7350e-10    2.764e+03   -3.189e-09  
  5.7400e-10    2.764e+03   -3.186e-09  
  5.7450e-10    2.764e+03   -3.183e-09  
  5.7500e-10    2.764e+03   -3.180e-09  
  5.7550e-10    2.764e+03   -3.177e-09  
  5.7600e-10    2.764e+03   -3.174e-09  
  5.7650e-10    2.764e+03   -3.171e-09  
  5.7700e-10    2.764e+03   -3.168e-09  
  5.7750e-10    2.764e+03   -3.165e-09  
  5.7800e-10    2.764e+03   -3.162e-09  
  5.7850e-10    2.764e+03   -3.159e-09  
  5.7900e-10    2.764e+03   -3.156e-09  
  5.7950e-10    2.764e+03   -3.153e-09  
  5.8000e-10    2.764e+03   -3.151e-09  
  5.8050e-10    2.764e+03   -3.148e-09  
  5.8100e-10    2.764e+03   -3.145e-09  
  5.8150e-10    2.764e+03   -3.143e-09  
  5.8200e-10    2.764e+03   -3.140e-09  
  5.8250e-10    2.764e+03   -3.137e-09  
  5.8300e-10    2.764e+03   -3.135e-09  
  5.8350e-10    2.764e+03   -3.132e-09  
  5.8400e-10    2.764e+03   -3.130e-09  
  5.8450e-10    2.764e+03   -3.127e-09  
  5.8500e-10    2.764e+03   -3.125e-09  
  5.8550e-10    2.764e+03   -3.122e-09  
  5.8600e-10    2.764e+03   -3.120e-09  
  5.8650e-10    2.764e+03   -3.118e-09  
  5.8700e-10    2.764e+03   -3.115e-09  
  5.8750e-10    2.764e+03   -3.113e-09  
  5.8800e-10    2.764e+03   -3.111e-09  
  5.8850e-10    2.764e+03   -3.108e-09  
  5.8900e-10    2.764e+03   -3.106e-09  
  5.8950e-10    2.764e+03   -3.104e-09  
  5.9000e-10    2.764e+03   -3.102e-09  
  5.9050e-10    2.764e+03   -3.100e-09  
  5.9100e-10    2.764e+03   -3.097e-09  
  5.9150e-10    2.764e+03   -3.095e-09  
  5.9200e-10    2.764e+03   -3.093e-09  
  5.9250e-10    2.764e+03   -3.091e-09  
  5.9300e-10    2.764e+03   -3.089e-09  
  5.9350e-10    2.764e+03   -3.087e-09  
  5.9400e-10    2.764e+03   -3.085e-09  
  5.9450e-10    2.764e+03   -3.083e-09  
  5.9500e-10    2.764e+03   -3.081e-09  
  5.9550e-10    2.764e+03   -3.079e-09  
  5.9600e-10    2.764e+03   -3.077e-09  
  5.9650e-10    2.764e+03   -3.075e-09  
  5.9700e-10    2.764e+03   -3.073e-09  
  5.9750e-10    2.764e+03   -3.071e-09  
  5.9800e-10    2.764e+03   -3.069e-09  
  5.9850e-10    2.764e+03   -3.067e-09  
  5.9900e-10    2.764e+03   -3.066e-09  
  5.9950e-10    2.764e+03   -3.064e-09  
  6.0000e-10    2.764e+03   -3.062e-09  
  6.0050e-10    2.764e+03   -3.060e-09  
  6.0100e-10    2.764e+03   -3.059e-09  
  6.0150e-10    2.764e+03   -3.057e-09  
  6.0200e-10    2.764e+03   -3.055e-09  
  6.0250e-10    2.764e+03   -3.053e-09  
  6.0300e-10    2.764e+03   -3.051e-09  
  6.0350e-10    2.764e+03   -3.050e-09  
  6.0400e-10    2.764e+03   -3.048e-09  
  6.0450e-10    2.764e+03   -3.046e-09  
  6.0500e-10    2.764e+03   -3.045e-09  
  6.0550e-10    2.764e+03   -3.043e-09  
  6.0600e-10    2.764e+03   -3.041e-09  
  6.0650e-10    2.764e+03   -3.040e-09  
  6.0700e-10    2.764e+03   -3.038e-09  
  6.0750e-10    2.764e+03   -3.037e-09  
  6.0800e-10    2.764e+03   -3.035e-09  
  6.0850e-10    2.764e+03   -3.033e-09  
  6.0900e-10    2.764e+03   -3.032e-09  
  6.0950e-10    2.764e+03   -3.030e-09  
  6.1000e-10    2.764e+03   -3.029e-09  
  6.1050e-10    2.764e+03   -3.027e-09  
  6.1100e-10    2.764e+03   -3.026e-09  
  6.1150e-10    2.764e+03   -3.024e-09  
  6.1200e-10    2.764e+03   -3.023e-09  
  6.1250e-10    2.764e+03   -3.022e-09  
  6.1300e-10    2.764e+03   -3.020e-09  
  6.1350e-10    2.764e+03   -3.019e-09  
  6.1400e-10    2.764e+03   -3.017e-09  
  6.1450e-10    2.764e+03   -3.016e-09  
  6.1500e-10    2.764e+03   -3.014e-09  
  6.1550e-10    2.764e+03   -3.013e-09  
  6.1600e-10    2.764e+03   -3.012e-09  
  6.1650e-10    2.764e+03   -3.010e-09  
  6.1700e-10    2.764e+03   -3.009e-09  
  6.1750e-10    2.764e+03   -3.008e-09  
  6.1800e-10    2.764e+03   -3.006e-09  
  6.1850e-10    2.764e+03   -3.005e-09  
  6.1900e-10    2.764e+03   -3.004e-09  
  6.1950e-10    2.764e+03   -3.002e-09  
  6.2000e-10    2.764e+03   -3.001e-09  
  6.2050e-10    2.764e+03   -3.000e-09  
  6.2100e-10    2.764e+03   -2.999e-09  
  6.2150e-10    2.764e+03   -2.997e-09  
  6.2200e-10    2.764e+03   -2.996e-09  
  6.2250e-10    2.764e+03   -2.995e-09  
  6.2300e-10    2.764e+03   -2.994e-09  
  6.2350e-10    2.764e+03   -2.992e-09  
  6.2400e-10    2.764e+03   -2.991e-09  
  6.2450e-10    2.764e+03   -2.990e-09  
  6.2500e-10    2.764e+03   -2.989e-09  
  6.2550e-10    2.764e+03   -2.988e-09  
  6.2600e-10    2.764e+03   -2.986e-09  
  6.2650e-10    2.764e+03   -2.985e-09  
  6.2700e-10    2.764e+03   -2.984e-09  
  6.2750e-10    2.764e+03   -2.983e-09  
  6.2800e-10    2.764e+03   -2.982e-09  
  6.2850e-10    2.764e+03   -2.981e-09  
  6.2900e-10    2.764e+03   -2.980e-09  
  6.2950e-10    2.764e+03   -2.979e-09  
  6.3000e-10    2.764e+03   -2.977e-09  
  6.3050e-10    2.764e+03   -2.976e-09  
  6.3100e-10    2.764e+03   -2.975e-09  
  6.3150e-10    2.764e+03   -2.974e-09  
  6.3200e-10    2.764e+03   -2.973e-09  
  6.3250e-10    2.764e+03   -2.972e-09  
  6.3300e-10    2.764e+03   -2.971e-09  
  6.3350e-10    2.764e+03   -2.970e-09  
  6.3400e-10    2.764e+03   -2.969e-09  
  6.3450e-10    2.764e+03   -2.968e-09  
  6.3500e-10    2.764e+03   -2.967e-09  
  6.3550e-10    2.764e+03   -2.966e-09  
  6.3600e-10    2.764e+03   -2.965e-09  
  6.3650e-10    2.764e+03   -2.964e-09  
  6.3700e-10    2.764e+03   -2.963e-09  
  6.3750e-10    2.764e+03   -2.962e-09  
  6.3800e-10    2.764e+03   -2.961e-09  
  6.3850e-10    2.764e+03   -2.960e-09  
  6.3900e-10    2.764e+03   -2.959e-09  
  6.3950e-10    2.764e+03   -2.958e-09  
  6.4000e-10    2.764e+03   -2.957e-09  
  6.4050e-10    2.764e+03   -2.956e-09  
  6.4100e-10    2.764e+03   -2.955e-09  
  6.4150e-10    2.764e+03   -2.954e-09  
  6.4200e-10    2.764e+03   -2.953e-09  
  6.4250e-10    2.764e+03   -2.952e-09  
  6.4300e-10    2.764e+03   -2.951e-09  
  6.4350e-10    2.764e+03   -2.950e-09  
  6.4400e-10    2.764e+03   -2.950e-09  
  6.4450e-10    2.764e+03   -2.949e-09  
  6.4500e-10    2.764e+03   -2.948e-09  
  6.4550e-10    2.764e+03   -2.947e-09  
  6.4600e-10    2.764e+03   -2.946e-09  
  6.4650e-10    2.764e+03   -2.945e-09  
  6.4700e-10    2.764e+03   -2.944e-09  
  6.4750e-10    2.764e+03   -2.943e-09  
  6.4800e-10    2.764e+03   -2.943e-09  
  6.4850e-10    2.764e+03   -2.942e-09  
  6.4900e-10    2.764e+03   -2.941e-09  
  6.4950e-10    2.764e+03   -2.940e-09  
  6.5000e-10    2.764e+03   -2.939e-09  
  6.5050e-10    2.764e+03   -2.938e-09  
  6.5100e-10    2.764e+03   -2.938e-09  
  6.5150e-10    2.764e+03   -2.937e-09  
  6.5200e-10    2.764e+03   -2.936e-09  
  6.5250e-10    2.764e+03   -2.935e-09  
  6.5300e-10    2.764e+03   -2.935e-09  
  6.5350e-10    2.764e+03   -2.933e-09  
  6.5400e-10    2.764e+03   -2.933e-09  
  6.5450e-10    2.764e+03   -2.932e-09  
  6.5500e-10    2.764e+03   -2.931e-09  
  6.5550e-10    2.764e+03   -2.930e-09  
  6.5600e-10    2.764e+03   -2.930e-09  
  6.5650e-10    2.764e+03   -2.929e-09  
  6.5700e-10    2.764e+03   -2.928e-09  
  6.5750e-10    2.764e+03   -2.928e-09  
  6.5800e-10    2.764e+03   -2.926e-09  
  6.5850e-10    2.764e+03   -2.926e-09  
  6.5900e-10    2.764e+03   -2.925e-09  
  6.5950e-10    2.764e+03   -2.924e-09  
  6.6000e-10    2.764e+03   -2.924e-09  
  6.6050e-10    2.764e+03   -2.923e-09  
  6.6100e-10    2.764e+03   -2.922e-09  
  6.6150e-10    2.764e+03   -2.922e-09  
  6.6200e-10    2.764e+03   -2.921e-09  
  6.6250e-10    2.764e+03   -2.920e-09  
  6.6300e-10    2.764e+03   -2.919e-09  
  6.6350e-10    2.764e+03   -2.919e-09  
  6.6400e-10    2.764e+03   -2.918e-09  
  6.6450e-10    2.764e+03   -2.917e-09  
  6.6500e-10    2.764e+03   -2.917e-09  
  6.6550e-10    2.764e+03   -2.916e-09  
  6.6600e-10    2.764e+03   -2.915e-09  
  6.6650e-10    2.764e+03   -2.915e-09  
  6.6700e-10    2.764e+03   -2.914e-09  
  6.6750e-10    2.764e+03   -2.913e-09  
  6.6800e-10    2.764e+03   -2.913e-09  
  6.6850e-10    2.764e+03   -2.912e-09  
  6.6900e-10    2.764e+03   -2.911e-09  
  6.6950e-10    2.764e+03   -2.911e-09  
  6.7000e-10    2.764e+03   -2.910e-09  
  6.7050e-10    2.764e+03   -2.909e-09  
  6.7100e-10    2.764e+03   -2.909e-09  
  6.7150e-10    2.764e+03   -2.908e-09  
  6.7200e-10    2.764e+03   -2.908e-09  
  6.7250e-10    2.764e+03   -2.907e-09  
  6.7300e-10    2.764e+03   -2.906e-09  
  6.7350e-10    2.764e+03   -2.906e-09  
  6.7400e-10    2.764e+03   -2.905e-09  
  6.7450e-10    2.764e+03   -2.904e-09  
  6.7500e-10    2.764e+03   -2.904e-09  
  6.7550e-10    2.764e+03   -2.903e-09  
  6.7600e-10    2.764e+03   -2.903e-09  
  6.7650e-10    2.764e+03   -2.902e-09  
  6.7700e-10    2.764e+03   -2.901e-09  
  6.7750e-10    2.764e+03   -2.901e-09  
  6.7800e-10    2.764e+03   -2.900e-09  
  6.7850e-10    2.764e+03   -2.900e-09  
  6.7900e-10    2.764e+03   -2.899e-09  
  6.7950e-10    2.764e+03   -2.898e-09  
  6.8000e-10    2.764e+03   -2.898e-09  
  6.8050e-10    2.764e+03   -2.897e-09  
  6.8100e-10    2.764e+03   -2.897e-09  
  6.8150e-10    2.764e+03   -2.896e-09  
  6.8200e-10    2.764e+03   -2.895e-09  
  6.8250e-10    2.764e+03   -2.895e-09  
  6.8300e-10    2.764e+03   -2.895e-09  
  6.8350e-10    2.764e+03   -2.894e-09  
  6.8400e-10    2.764e+03   -2.893e-09  
  6.8450e-10    2.764e+03   -2.893e-09  
  6.8500e-10    2.764e+03   -2.892e-09  
  6.8550e-10    2.764e+03   -2.892e-09  
  6.8600e-10    2.764e+03   -2.891e-09  
  6.8650e-10    2.764e+03   -2.891e-09  
  6.8700e-10    2.764e+03   -2.890e-09  
  6.8750e-10    2.764e+03   -2.890e-09  
  6.8800e-10    2.764e+03   -2.889e-09  
  6.8850e-10    2.764e+03   -2.889e-09  
  6.8900e-10    2.764e+03   -2.888e-09  
  6.8950e-10    2.764e+03   -2.887e-09  
  6.9000e-10    2.764e+03   -2.887e-09  
  6.9050e-10    2.764e+03   -2.887e-09  
  6.9100e-10    2.764e+03   -2.886e-09  
  6.9150e-10    2.764e+03   -2.886e-09  
  6.9200e-10    2.764e+03   -2.885e-09  
  6.9250e-10    2.764e+03   -2.884e-09  
  6.9300e-10    2.764e+03   -2.884e-09  
  6.9350e-10    2.764e+03   -2.884e-09  
  6.9400e-10    2.764e+03   -2.883e-09  
  6.9450e-10    2.764e+03   -2.883e-09  
  6.9500e-10    2.764e+03   -2.882e-09  
  6.9550e-10    2.764e+03   -2.881e-09  
  6.9600e-10    2.764e+03   -2.881e-09  
  6.9650e-10    2.764e+03   -2.881e-09  
  6.9700e-10    2.764e+03   -2.880e-09  
  6.9750e-10    2.764e+03   -2.880e-09  
  6.9800e-10    2.764e+03   -2.879e-09  
  6.9850e-10    2.764e+03   -2.879e-09  
  6.9900e-10    2.764e+03   -2.878e-09  
  6.9950e-10    2.764e+03   -2.878e-09  
  7.0000e-10    2.764e+03   -2.877e-09  
  7.0050e-10    2.764e+03   -2.877e-09  
  7.0100e-10    2.764e+03   -2.877e-09  
  7.0150e-10    2.764e+03   -2.876e-09  
  7.0200e-10    2.764e+03   -2.876e-09  
  7.0250e-10    2.764e+03   -2.875e-09  
  7.0300e-10    2.764e+03   -2.875e-09  
  7.0350e-10    2.764e+03   -2.874e-09  
  7.0400e-10    2.764e+03   -2.874e-09  
  7.0450e-10    2.764e+03   -2.873e-09  
  7.0500e-10    2.764e+03   -2.873e-09  
  7.0550e-10    2.764e+03   -2.872e-09  
  7.0600e-10    2.764e+03   -2.872e-09  
  7.0650e-10    2.764e+03   -2.872e-09  
  7.0700e-10    2.764e+03   -2.871e-09  
  7.0750e-10    2.764e+03   -2.871e-09  
  7.0800e-10    2.764e+03   -2.870e-09  
  7.0850e-10    2.764e+03   -2.870e-09  
  7.0900e-10    2.764e+03   -2.870e-09  
  7.0950e-10    2.764e+03   -2.869e-09  
  7.1000e-10    2.764e+03   -2.869e-09  
  7.1050e-10    2.764e+03   -2.868e-09  
  7.1100e-10    2.764e+03   -2.868e-09  
  7.1150e-10    2.764e+03   -2.867e-09  
  7.1200e-10    2.764e+03   -2.867e-09  
  7.1250e-10    2.764e+03   -2.867e-09  
  7.1300e-10    2.764e+03   -2.866e-09  
  7.1350e-10    2.764e+03   -2.866e-09  
  7.1400e-10    2.764e+03   -2.865e-09  
  7.1450e-10    2.764e+03   -2.865e-09  
  7.1500e-10    2.764e+03   -2.865e-09  
  7.1550e-10    2.764e+03   -2.864e-09  
  7.1600e-10    2.764e+03   -2.864e-09  
  7.1650e-10    2.764e+03   -2.863e-09  
  7.1700e-10    2.764e+03   -2.863e-09  
  7.1750e-10    2.764e+03   -2.863e-09  
  7.1800e-10    2.764e+03   -2.862e-09  
  7.1850e-10    2.764e+03   -2.862e-09  
  7.1900e-10    2.764e+03   -2.862e-09  
  7.1950e-10    2.764e+03   -2.861e-09  
  7.2000e-10    2.764e+03   -2.861e-09  
  7.2050e-10    2.764e+03   -2.860e-09  
  7.2100e-10    2.764e+03   -2.860e-09  
  7.2150e-10    2.764e+03   -2.860e-09  
  7.2200e-10    2.764e+03   -2.859e-09  
  7.2250e-10    2.764e+03   -2.859e-09  
  7.2300e-10    2.764e+03   -2.859e-09  
  7.2350e-10    2.764e+03   -2.858e-09  
  7.2400e-10    2.764e+03   -2.858e-09  
  7.2450e-10    2.764e+03   -2.857e-09  
  7.2500e-10    2.764e+03   -2.857e-09  
  7.2550e-10    2.764e+03   -2.857e-09  
  7.2600e-10    2.764e+03   -2.856e-09  
  7.2650e-10    2.764e+03   -2.856e-09  
  7.2700e-10    2.764e+03   -2.856e-09  
  7.2750e-10    2.764e+03   -2.855e-09  
  7.2800e-10    2.764e+03   -2.855e-09  
  7.2850e-10    2.764e+03   -2.855e-09  
  7.2900e-10    2.764e+03   -2.854e-09  
  7.2950e-10    2.764e+03   -2.854e-09  
  7.3000e-10    2.764e+03   -2.854e-09  
  7.3050e-10    2.764e+03   -2.853e-09  
  7.3100e-10    2.764e+03   -2.853e-09  
  7.3150e-10    2.764e+03   -2.853e-09  
  7.3200e-10    2.764e+03   -2.852e-09  
  7.3250e-10    2.764e+03   -2.852e-09  
  7.3300e-10    2.764e+03   -2.852e-09  
  7.3350e-10    2.764e+03   -2.851e-09  
  7.3400e-10    2.764e+03   -2.851e-09  
  7.3450e-10    2.764e+03   -2.851e-09  
  7.3500e-10    2.764e+03   -2.850e-09  
  7.3550e-10    2.764e+03   -2.850e-09  
  7.3600e-10    2.764e+03   -2.850e-09  
  7.3650e-10    2.764e+03   -2.849e-09  
  7.3700e-10    2.764e+03   -2.849e-09  
  7.3750e-10    2.764e+03   -2.849e-09  
  7.3800e-10    2.764e+03   -2.848e-09  
  7.3850e-10    2.764e+03   -2.848e-09  
  7.3900e-10    2.764e+03   -2.847e-09  
  7.3950e-10    2.764e+03   -2.847e-09  
  7.4000e-10    2.764e+03   -2.847e-09  
  7.4050e-10    2.764e+03   -2.847e-09  
  7.4100e-10    2.764e+03   -2.847e-09  
  7.4150e-10    2.764e+03   -2.846e-09  
  7.4200e-10    2.764e+03   -2.846e-09  
  7.4250e-10    2.764e+03   -2.846e-09  
  7.4300e-10    2.764e+03   -2.845e-09  
  7.4350e-10    2.764e+03   -2.845e-09  
  7.4400e-10    2.764e+03   -2.844e-09  
  7.4450e-10    2.764e+03   -2.844e-09  
  7.4500e-10    2.764e+03   -2.844e-09  
  7.4550e-10    2.764e+03   -2.844e-09  
  7.4600e-10    2.764e+03   -2.844e-09  
  7.4650e-10    2.764e+03   -2.843e-09  
  7.4700e-10    2.764e+03   -2.843e-09  
  7.4750e-10    2.764e+03   -2.843e-09  
  7.4800e-10    2.764e+03   -2.842e-09  
  7.4850e-10    2.764e+03   -2.842e-09  
  7.4900e-10    2.764e+03   -2.842e-09  
  7.4950e-10    2.764e+03   -2.841e-09  
  7.5000e-10    2.764e+03   -2.841e-09  
  7.5050e-10    2.764e+03   -2.841e-09  
  7.5100e-10    2.764e+03   -2.841e-09  
  7.5150e-10    2.764e+03   -2.840e-09  
  7.5200e-10    2.764e+03   -2.840e-09  
  7.5250e-10    2.764e+03   -2.840e-09  
  7.5300e-10    2.764e+03   -2.840e-09  
  7.5350e-10    2.764e+03   -2.839e-09  
  7.5400e-10    2.764e+03   -2.839e-09  
  7.5450e-10    2.764e+03   -2.839e-09  
  7.5500e-10    2.764e+03   -2.838e-09  
  7.5550e-10    2.764e+03   -2.838e-09  
  7.5600e-10    2.764e+03   -2.838e-09  
  7.5650e-10    2.764e+03   -2.837e-09  
  7.5700e-10    2.764e+03   -2.837e-09  
  7.5750e-10    2.764e+03   -2.837e-09  
  7.5800e-10    2.764e+03   -2.837e-09  
  7.5850e-10    2.764e+03   -2.837e-09  
  7.5900e-10    2.764e+03   -2.836e-09  
  7.5950e-10    2.764e+03   -2.836e-09  
  7.6000e-10    2.764e+03   -2.836e-09  
  7.6050e-10    2.764e+03   -2.836e-09  
  7.6100e-10    2.764e+03   -2.835e-09  
  7.6150e-10    2.764e+03   -2.835e-09  
  7.6200e-10    2.764e+03   -2.835e-09  
  7.6250e-10    2.764e+03   -2.834e-09  
  7.6300e-10    2.764e+03   -2.834e-09  
  7.6350e-10    2.764e+03   -2.834e-09  
  7.6400e-10    2.764e+03   -2.834e-09  
  7.6450e-10    2.764e+03   -2.834e-09  
  7.6500e-10    2.764e+03   -2.833e-09  
  7.6550e-10    2.764e+03   -2.833e-09  
  7.6600e-10    2.764e+03   -2.833e-09  
  7.6650e-10    2.764e+03   -2.832e-09  
  7.6700e-10    2.764e+03   -2.832e-09  
  7.6750e-10    2.764e+03   -2.832e-09  
  7.6800e-10    2.764e+03   -2.832e-09  
  7.6850e-10    2.764e+03   -2.832e-09  
  7.6900e-10    2.764e+03   -2.831e-09  
  7.6950e-10    2.764e+03   -2.831e-09  
  7.7000e-10    2.764e+03   -2.831e-09  
  7.7050e-10    2.764e+03   -2.831e-09  
  7.7100e-10    2.764e+03   -2.831e-09  
  7.7150e-10    2.764e+03   -2.830e-09  
  7.7200e-10    2.764e+03   -2.830e-09  
  7.7250e-10    2.764e+03   -2.830e-09  
  7.7300e-10    2.764e+03   -2.829e-09  
  7.7350e-10    2.764e+03   -2.829e-09  
  7.7400e-10    2.764e+03   -2.829e-09  
  7.7450e-10    2.764e+03   -2.829e-09  
  7.7500e-10    2.764e+03   -2.829e-09  
  7.7550e-10    2.764e+03   -2.828e-09  
  7.7600e-10    2.764e+03   -2.828e-09  
  7.7650e-10    2.764e+03   -2.828e-09  
  7.7700e-10    2.764e+03   -2.828e-09  
  7.7750e-10    2.764e+03   -2.827e-09  
  7.7800e-10    2.764e+03   -2.827e-09  
  7.7850e-10    2.764e+03   -2.827e-09  
  7.7900e-10    2.764e+03   -2.827e-09  
  7.7950e-10    2.764e+03   -2.827e-09  
  7.8000e-10    2.764e+03   -2.826e-09  
  7.8050e-10    2.764e+03   -2.826e-09  
  7.8100e-10    2.764e+03   -2.826e-09  
  7.8150e-10    2.764e+03   -2.826e-09  
  7.8200e-10    2.764e+03   -2.825e-09  
  7.8250e-10    2.764e+03   -2.825e-09  
  7.8300e-10    2.764e+03   -2.825e-09  
  7.8350e-10    2.764e+03   -2.825e-09  
  7.8400e-10    2.764e+03   -2.825e-09  
  7.8450e-10    2.764e+03   -2.825e-09  
  7.8500e-10    2.764e+03   -2.824e-09  
  7.8550e-10    2.764e+03   -2.824e-09  
  7.8600e-10    2.764e+03   -2.824e-09  
  7.8650e-10    2.764e+03   -2.824e-09  
  7.8700e-10    2.764e+03   -2.823e-09  
  7.8750e-10    2.764e+03   -2.823e-09  
  7.8800e-10    2.764e+03   -2.823e-09  
  7.8850e-10    2.764e+03   -2.823e-09  
  7.8900e-10    2.764e+03   -2.823e-09  
  7.8950e-10    2.764e+03   -2.822e-09  
  7.9000e-10    2.764e+03   -2.822e-09  
  7.9050e-10    2.764e+03   -2.822e-09  
  7.9100e-10    2.764e+03   -2.822e-09  
  7.9150e-10    2.764e+03   -2.822e-09  
  7.9200e-10    2.764e+03   -2.821e-09  
  7.9250e-10    2.764e+03   -2.821e-09  
  7.9300e-10    2.764e+03   -2.821e-09  
  7.9350e-10    2.764e+03   -2.821e-09  
  7.9400e-10    2.764e+03   -2.821e-09  
  7.9450e-10    2.764e+03   -2.820e-09  
  7.9500e-10    2.764e+03   -2.820e-09  
  7.9550e-10    2.764e+03   -2.820e-09  
  7.9600e-10    2.764e+03   -2.820e-09  
  7.9650e-10    2.764e+03   -2.820e-09  
  7.9700e-10    2.764e+03   -2.819e-09  
  7.9750e-10    2.764e+03   -2.819e-09  
  7.9800e-10    2.764e+03   -2.819e-09  
  7.9850e-10    2.764e+03   -2.819e-09  
  7.9900e-10    2.764e+03   -2.819e-09  
  7.9950e-10    2.764e+03   -2.819e-09  
  8.0000e-10    2.764e+03   -2.818e-09  
  8.0050e-10    2.764e+03   -2.818e-09  
  8.0100e-10    2.764e+03   -2.818e-09  
  8.0150e-10    2.764e+03   -2.818e-09  
  8.0200e-10    2.764e+03   -2.818e-09  
  8.0250e-10    2.764e+03   -2.818e-09  
  8.0300e-10    2.764e+03   -2.817e-09  
  8.0350e-10    2.764e+03   -2.817e-09  
  8.0400e-10    2.764e+03   -2.817e-09  
  8.0450e-10    2.764e+03   -2.817e-09  
  8.0500e-10    2.764e+03   -2.816e-09  
  8.0550e-10    2.764e+03   -2.816e-09  
  8.0600e-10    2.764e+03   -2.816e-09  
  8.0650e-10    2.764e+03   -2.816e-09  
  8.0700e-10    2.764e+03   -2.816e-09  
  8.0750e-10    2.764e+03   -2.815e-09  
  8.0800e-10    2.764e+03   -2.815e-09  
  8.0850e-10    2.764e+03   -2.815e-09  
  8.0900e-10    2.764e+03   -2.815e-09  
  8.0950e-10    2.764e+03   -2.815e-09  
  8.1000e-10    2.764e+03   -2.815e-09  
  8.1050e-10    2.764e+03   -2.815e-09  
  8.1100e-10    2.764e+03   -2.814e-09  
  8.1150e-10    2.764e+03   -2.814e-09  
  8.1200e-10    2.764e+03   -2.814e-09  
  8.1250e-10    2.764e+03   -2.814e-09  
  8.1300e-10    2.764e+03   -2.814e-09  
  8.1350e-10    2.764e+03   -2.814e-09  
  8.1400e-10    2.764e+03   -2.813e-09  
  8.1450e-10    2.764e+03   -2.813e-09  
  8.1500e-10    2.764e+03   -2.813e-09  
  8.1550e-10    2.764e+03   -2.813e-09  
  8.1600e-10    2.764e+03   -2.813e-09  
  8.1650e-10    2.764e+03   -2.813e-09  
  8.1700e-10    2.764e+03   -2.813e-09  
  8.1750e-10    2.764e+03   -2.812e-09  
  8.1800e-10    2.764e+03   -2.812e-09  
  8.1850e-10    2.764e+03   -2.812e-09  
  8.1900e-10    2.764e+03   -2.812e-09  
  8.1950e-10    2.764e+03   -2.812e-09  
  8.2000e-10    2.764e+03   -2.812e-09  
  8.2050e-10    2.764e+03   -2.811e-09  
  8.2100e-10    2.764e+03   -2.811e-09  
  8.2150e-10    2.764e+03   -2.811e-09  
  8.2200e-10    2.764e+03   -2.811e-09  
  8.2250e-10    2.764e+03   -2.811e-09  
  8.2300e-10    2.764e+03   -2.811e-09  
  8.2350e-10    2.764e+03   -2.810e-09  
  8.2400e-10    2.764e+03   -2.810e-09  
  8.2450e-10    2.764e+03   -2.810e-09  
  8.2500e-10    2.764e+03   -2.810e-09  
  8.2550e-10    2.764e+03   -2.810e-09  
  8.2600e-10    2.764e+03   -2.810e-09  
  8.2650e-10    2.764e+03   -2.810e-09  
  8.2700e-10    2.764e+03   -2.810e-09  
  8.2750e-10    2.764e+03   -2.809e-09  
  8.2800e-10    2.764e+03   -2.809e-09  
  8.2850e-10    2.764e+03   -2.809e-09  
  8.2900e-10    2.764e+03   -2.809e-09  
  8.2950e-10    2.764e+03   -2.809e-09  
  8.3000e-10    2.764e+03   -2.809e-09  
  8.3050e-10    2.764e+03   -2.808e-09  
  8.3100e-10    2.764e+03   -2.808e-09  
  8.3150e-10    2.764e+03   -2.808e-09  
  8.3200e-10    2.764e+03   -2.808e-09  
  8.3250e-10    2.764e+03   -2.808e-09  
  8.3300e-10    2.764e+03   -2.808e-09  
  8.3350e-10    2.764e+03   -2.808e-09  
  8.3400e-10    2.764e+03   -2.807e-09  
  8.3450e-10    2.764e+03   -2.807e-09  
  8.3500e-10    2.764e+03   -2.807e-09  
  8.3550e-10    2.764e+03   -2.807e-09  
  8.3600e-10    2.764e+03   -2.807e-09  
  8.3650e-10    2.764e+03   -2.807e-09  
  8.3700e-10    2.764e+03   -2.807e-09  
  8.3750e-10    2.764e+03   -2.806e-09  
  8.3800e-10    2.764e+03   -2.806e-09  
  8.3850e-10    2.764e+03   -2.806e-09  
  8.3900e-10    2.764e+03   -2.806e-09  
  8.3950e-10    2.764e+03   -2.806e-09  
  8.4000e-10    2.764e+03   -2.806e-09  
  8.4050e-10    2.764e+03   -2.806e-09  
  8.4100e-10    2.764e+03   -2.806e-09  
  8.4150e-10    2.764e+03   -2.805e-09  
  8.4200e-10    2.764e+03   -2.805e-09  
  8.4250e-10    2.764e+03   -2.805e-09  
  8.4300e-10    2.764e+03   -2.805e-09  
  8.4350e-10    2.764e+03   -2.805e-09  
  8.4400e-10    2.764e+03   -2.805e-09  
  8.4450e-10    2.764e+03   -2.804e-09  
  8.4500e-10    2.764e+03   -2.804e-09  
  8.4550e-10    2.764e+03   -2.804e-09  
  8.4600e-10    2.764e+03   -2.804e-09  
  8.4650e-10    2.764e+03   -2.804e-09  
  8.4700e-10    2.764e+03   -2.804e-09  
  8.4750e-10    2.764e+03   -2.804e-09  
  8.4800e-10    2.764e+03   -2.804e-09  
  8.4850e-10    2.764e+03   -2.804e-09  
  8.4900e-10    2.764e+03   -2.803e-09  
  8.4950e-10    2.764e+03   -2.803e-09  
  8.5000e-10    2.764e+03   -2.803e-09  
  8.5050e-10    2.764e+03   -2.803e-09  
  8.5100e-10    2.764e+03   -2.803e-09  
  8.5150e-10    2.764e+03   -2.803e-09  
  8.5200e-10    2.764e+03   -2.802e-09  
  8.5250e-10    2.764e+03   -2.803e-09  
  8.5300e-10    2.764e+03   -2.803e-09  
  8.5350e-10    2.764e+03   -2.802e-09  
  8.5400e-10    2.764e+03   -2.802e-09  
  8.5450e-10    2.764e+03   -2.802e-09  
  8.5500e-10    2.764e+03   -2.802e-09  
  8.5550e-10    2.764e+03   -2.802e-09  
  8.5600e-10    2.764e+03   -2.802e-09  
  8.5650e-10    2.764e+03   -2.801e-09  
  8.5700e-10    2.764e+03   -2.801e-09  
  8.5750e-10    2.764e+03   -2.801e-09  
  8.5800e-10    2.764e+03   -2.801e-09  
  8.5850e-10    2.764e+03   -2.801e-09  
  8.5900e-10    2.764e+03   -2.801e-09  
  8.5950e-10    2.764e+03   -2.801e-09  
  8.6000e-10    2.764e+03   -2.801e-09  
  8.6050e-10    2.764e+03   -2.801e-09  
  8.6100e-10    2.764e+03   -2.800e-09  
  8.6150e-10    2.764e+03   -2.801e-09  
  8.6200e-10    2.764e+03   -2.800e-09  
  8.6250e-10    2.764e+03   -2.800e-09  
  8.6300e-10    2.764e+03   -2.800e-09  
  8.6350e-10    2.764e+03   -2.800e-09  
  8.6400e-10    2.764e+03   -2.800e-09  
  8.6450e-10    2.764e+03   -2.800e-09  
  8.6500e-10    2.764e+03   -2.800e-09  
  8.6550e-10    2.764e+03   -2.799e-09  
  8.6600e-10    2.764e+03   -2.800e-09  
  8.6650e-10    2.764e+03   -2.799e-09  
  8.6700e-10    2.764e+03   -2.799e-09  
  8.6750e-10    2.764e+03   -2.799e-09  
  8.6800e-10    2.764e+03   -2.799e-09  
  8.6850e-10    2.764e+03   -2.799e-09  
  8.6900e-10    2.764e+03   -2.799e-09  
  8.6950e-10    2.764e+03   -2.799e-09  
  8.7000e-10    2.764e+03   -2.798e-09  
  8.7050e-10    2.764e+03   -2.798e-09  
  8.7100e-10    2.764e+03   -2.798e-09  
  8.7150e-10    2.764e+03   -2.798e-09  
  8.7200e-10    2.764e+03   -2.798e-09  
  8.7250e-10    2.764e+03   -2.798e-09  
  8.7300e-10    2.764e+03   -2.798e-09  
  8.7350e-10    2.764e+03   -2.798e-09  
  8.7400e-10    2.764e+03   -2.798e-09  
  8.7450e-10    2.764e+03   -2.797e-09  
  8.7500e-10    2.764e+03   -2.798e-09  
  8.7550e-10    2.764e+03   -2.798e-09  
  8.7600e-10    2.764e+03   -2.797e-09  
  8.7650e-10    2.764e+03   -2.797e-09  
  8.7700e-10    2.764e+03   -2.797e-09  
  8.7750e-10    2.764e+03   -2.797e-09  
  8.7800e-10    2.764e+03   -2.797e-09  
  8.7850e-10    2.764e+03   -2.797e-09  
  8.7900e-10    2.764e+03   -2.796e-09  
  8.7950e-10    2.764e+03   -2.796e-09  
  8.8000e-10    2.764e+03   -2.797e-09  
  8.8050e-10    2.764e+03   -2.796e-09  
  8.8100e-10    2.764e+03   -2.796e-09  
  8.8150e-10    2.764e+03   -2.796e-09  
  8.8200e-10    2.764e+03   -2.796e-09  
  8.8250e-10    2.764e+03   -2.796e-09  
  8.8300e-10    2.764e+03   -2.796e-09  
  8.8350e-10    2.764e+03   -2.796e-09  
  8.8400e-10    2.764e+03   -2.796e-09  
  8.8450e-10    2.764e+03   -2.796e-09  
  8.8500e-10    2.764e+03   -2.795e-09  
  8.8550e-10    2.764e+03   -2.796e-09  
  8.8600e-10    2.764e+03   -2.796e-09  
  8.8650e-10    2.764e+03   -2.795e-09  
  8.8700e-10    2.764e+03   -2.795e-09  
  8.8750e-10    2.764e+03   -2.795e-09  
  8.8800e-10    2.764e+03   -2.795e-09  
  8.8850e-10    2.764e+03   -2.795e-09  
  8.8900e-10    2.764e+03   -2.795e-09  
  8.8950e-10    2.764e+03   -2.795e-09  
  8.9000e-10    2.764e+03   -2.795e-09  
  8.9050e-10    2.764e+03   -2.795e-09  
  8.9100e-10    2.764e+03   -2.794e-09  
  8.9150e-10    2.764e+03   -2.794e-09  
  8.9200e-10    2.764e+03   -2.794e-09  
  8.9250e-10    2.764e+03   -2.794e-09  
  8.9300e-10    2.764e+03   -2.794e-09  
  8.9350e-10    2.764e+03   -2.794e-09  
  8.9400e-10    2.764e+03   -2.794e-09  
  8.9450e-10    2.764e+03   -2.794e-09  
  8.9500e-10    2.764e+03   -2.794e-09  
  8.9550e-10    2.764e+03   -2.793e-09  
  8.9600e-10    2.764e+03   -2.794e-09  
  8.9650e-10    2.764e+03   -2.794e-09  
  8.9700e-10    2.764e+03   -2.793e-09  
  8.9750e-10    2.764e+03   -2.793e-09  
  8.9800e-10    2.764e+03   -2.793e-09  
  8.9850e-10    2.764e+03   -2.793e-09  
  8.9900e-10    2.764e+03   -2.793e-09  
  8.9950e-10    2.764e+03   -2.793e-09  
  9.0000e-10    2.764e+03   -2.793e-09  
  9.0050e-10    2.764e+03   -2.793e-09  
  9.0100e-10    2.764e+03   -2.793e-09  
  9.0150e-10    2.764e+03   -2.792e-09  
  9.0200e-10    2.764e+03   -2.792e-09  
  9.0250e-10    2.764e+03   -2.792e-09  
  9.0300e-10    2.764e+03   -2.792e-09  
  9.0350e-10    2.764e+03   -2.792e-09  
  9.0400e-10    2.764e+03   -2.792e-09  
  9.0450e-10    2.764e+03   -2.792e-09  
  9.0500e-10    2.764e+03   -2.792e-09  
  9.0550e-10    2.764e+03   -2.792e-09  
  9.0600e-10    2.764e+03   -2.792e-09  
  9.0650e-10    2.764e+03   -2.792e-09  
  9.0700e-10    2.764e+03   -2.792e-09  
  9.0750e-10    2.764e+03   -2.791e-09  
  9.0800e-10    2.764e+03   -2.792e-09  
  9.0850e-10    2.764e+03   -2.792e-09  
  9.0900e-10    2.764e+03   -2.791e-09  
  9.0950e-10    2.764e+03   -2.791e-09  
  9.1000e-10    2.764e+03   -2.791e-09  
  9.1050e-10    2.764e+03   -2.791e-09  
  9.1100e-10    2.764e+03   -2.791e-09  
  9.1150e-10    2.764e+03   -2.791e-09  
  9.1200e-10    2.764e+03   -2.791e-09  
  9.1250e-10    2.764e+03   -2.791e-09  
  9.1300e-10    2.764e+03   -2.791e-09  
  9.1350e-10    2.764e+03   -2.791e-09  
  9.1400e-10    2.764e+03   -2.790e-09  
  9.1450e-10    2.764e+03   -2.791e-09  
  9.1500e-10    2.764e+03   -2.790e-09  
  9.1550e-10    2.764e+03   -2.790e-09  
  9.1600e-10    2.764e+03   -2.790e-09  
  9.1650e-10    2.764e+03   -2.790e-09  
  9.1700e-10    2.764e+03   -2.790e-09  
  9.1750e-10    2.764e+03   -2.790e-09  
  9.1800e-10    2.764e+03   -2.790e-09  
  9.1850e-10    2.764e+03   -2.790e-09  
  9.1900e-10    2.764e+03   -2.790e-09  
  9.1950e-10    2.764e+03   -2.790e-09  
  9.2000e-10    2.764e+03   -2.790e-09  
  9.2050e-10    2.764e+03   -2.790e-09  
  9.2100e-10    2.764e+03   -2.789e-09  
  9.2150e-10    2.764e+03   -2.790e-09  
  9.2200e-10    2.764e+03   -2.789e-09  
  9.2250e-10    2.764e+03   -2.789e-09  
  9.2300e-10    2.764e+03   -2.789e-09  
  9.2350e-10    2.764e+03   -2.789e-09  
  9.2400e-10    2.764e+03   -2.789e-09  
  9.2450e-10    2.764e+03   -2.789e-09  
  9.2500e-10    2.764e+03   -2.789e-09  
  9.2550e-10    2.764e+03   -2.789e-09  
  9.2600e-10    2.764e+03   -2.789e-09  
  9.2650e-10    2.764e+03   -2.789e-09  
  9.2700e-10    2.764e+03   -2.789e-09  
  9.2750e-10    2.764e+03   -2.789e-09  
  9.2800e-10    2.764e+03   -2.789e-09  
  9.2850e-10    2.764e+03   -2.788e-09  
  9.2900e-10    2.764e+03   -2.788e-09  
  9.2950e-10    2.764e+03   -2.788e-09  
  9.3000e-10    2.764e+03   -2.788e-09  
  9.3050e-10    2.764e+03   -2.788e-09  
  9.3100e-10    2.764e+03   -2.788e-09  
  9.3150e-10    2.764e+03   -2.788e-09  
  9.3200e-10    2.764e+03   -2.788e-09  
  9.3250e-10    2.764e+03   -2.788e-09  
  9.3300e-10    2.764e+03   -2.788e-09  
  9.3350e-10    2.764e+03   -2.788e-09  
  9.3400e-10    2.764e+03   -2.788e-09  
  9.3450e-10    2.764e+03   -2.788e-09  
  9.3500e-10    2.764e+03   -2.787e-09  
  9.3550e-10    2.764e+03   -2.788e-09  
  9.3600e-10    2.764e+03   -2.787e-09  
  9.3650e-10    2.764e+03   -2.787e-09  
  9.3700e-10    2.764e+03   -2.787e-09  
  9.3750e-10    2.764e+03   -2.787e-09  
  9.3800e-10    2.764e+03   -2.787e-09  
  9.3850e-10    2.764e+03   -2.787e-09  
  9.3900e-10    2.764e+03   -2.787e-09  
  9.3950e-10    2.764e+03   -2.787e-09  
  9.4000e-10    2.764e+03   -2.787e-09  
  9.4050e-10    2.764e+03   -2.787e-09  
  9.4100e-10    2.764e+03   -2.787e-09  
  9.4150e-10    2.764e+03   -2.787e-09  
  9.4200e-10    2.764e+03   -2.787e-09  
[...]
  9.8000e-10    2.764e+03   -2.782e-09  
  9.8050e-10    2.764e+03   -2.782e-09  
  9.8100e-10    2.764e+03   -2.782e-09  
  9.8150e-10    2.764e+03   -2.782e-09  
  9.8200e-10    2.764e+03   -2.782e-09  
  9.8250e-10    2.764e+03   -2.782e-09  
  9.8300e-10    2.764e+03   -2.782e-09  
  9.8350e-10    2.764e+03   -2.782e-09  
  9.8400e-10    2.764e+03   -2.782e-09  
  9.8450e-10    2.764e+03   -2.782e-09  
  9.8500e-10    2.764e+03   -2.782e-09  
  9.8550e-10    2.764e+03   -2.782e-09  
  9.8600e-10    2.764e+03   -2.782e-09  
  9.8650e-10    2.764e+03   -2.782e-09  
  9.8700e-10    2.764e+03   -2.782e-09  
  9.8750e-10    2.764e+03   -2.782e-09  
  9.8800e-10    2.764e+03   -2.782e-09  
  9.8850e-10    2.764e+03   -2.781e-09  
  9.8900e-10    2.764e+03   -2.782e-09  
  9.8950e-10    2.764e+03   -2.782e-09  
  9.9000e-10    2.764e+03   -2.781e-09  
  9.9050e-10    2.764e+03   -2.782e-09  
  9.9100e-10    2.764e+03   -2.781e-09  
  9.9150e-10    2.764e+03   -2.781e-09  
  9.9200e-10    2.764e+03   -2.781e-09  
  9.9250e-10    2.764e+03   -2.781e-09  
  9.9300e-10    2.764e+03   -2.781e-09  
  9.9350e-10    2.764e+03   -2.781e-09  
  9.9400e-10    2.764e+03   -2.781e-09  
  9.9450e-10    2.764e+03   -2.781e-09  
  9.9500e-10    2.764e+03   -2.781e-09  
  9.9550e-10    2.764e+03   -2.781e-09  
  9.9600e-10    2.764e+03   -2.781e-09  
  9.9650e-10    2.764e+03   -2.781e-09  
  9.9700e-10    2.764e+03   -2.781e-09  
  9.9750e-10    2.764e+03   -2.781e-09  
  9.9800e-10    2.764e+03   -2.781e-09  
  9.9850e-10    2.764e+03   -2.781e-09  
  9.9900e-10    2.764e+03   -2.781e-09  
  9.9950e-10    2.764e+03   -2.781e-09  
  1.0000e-09    2.764e+03   -2.781e-09  
  1.0005e-09    2.764e+03   -2.780e-09  
  1.0010e-09    2.764e+03   -2.780e-09  
  1.0015e-09    2.764e+03   -2.780e-09  
  1.0020e-09    2.764e+03   -2.780e-09  
  1.0025e-09    2.764e+03   -2.780e-09  
  1.0030e-09    2.764e+03   -2.780e-09  
  1.0035e-09    2.764e+03   -2.780e-09  
  1.0040e-09    2.764e+03   -2.780e-09  
  1.0045e-09    2.764e+03   -2.780e-09  
  1.0050e-09    2.764e+03   -2.780e-09  
  1.0055e-09    2.764e+03   -2.780e-09  
  1.0060e-09    2.764e+03   -2.780e-09  
  1.0065e-09    2.764e+03   -2.780e-09  
  1.0070e-09    2.764e+03   -2.780e-09  
  1.0075e-09    2.764e+03   -2.780e-09  
  1.0080e-09    2.764e+03   -2.780e-09  
  1.0085e-09    2.764e+03   -2.780e-09  
  1.0090e-09    2.764e+03   -2.780e-09  
  1.0095e-09    2.764e+03   -2.780e-09  
  1.0100e-09    2.764e+03   -2.780e-09  
  1.0105e-09    2.764e+03   -2.780e-09  
  1.0110e-09    2.764e+03   -2.780e-09  
  1.0115e-09    2.764e+03   -2.780e-09  
  1.0120e-09    2.764e+03   -2.780e-09  
  1.0125e-09    2.764e+03   -2.779e-09  
  1.0130e-09    2.764e+03   -2.779e-09  
  1.0135e-09    2.764e+03   -2.779e-09  
  1.0140e-09    2.764e+03   -2.779e-09  
  1.0145e-09    2.764e+03   -2.779e-09  
  1.0150e-09    2.764e+03   -2.779e-09  
  1.0155e-09    2.764e+03   -2.779e-09  
  1.0160e-09    2.764e+03   -2.779e-09  
  1.0165e-09    2.764e+03   -2.779e-09  
  1.0170e-09    2.764e+03   -2.779e-09  
  1.0175e-09    2.764e+03   -2.779e-09  
  1.0180e-09    2.764e+03   -2.779e-09  
  1.0185e-09    2.764e+03   -2.779e-09  
  1.0190e-09    2.764e+03   -2.779e-09  
  1.0195e-09    2.764e+03   -2.779e-09  
  1.0200e-09    2.764e+03   -2.779e-09  
  1.0205e-09    2.764e+03   -2.779e-09  
  1.0210e-09    2.764e+03   -2.779e-09  
  1.0215e-09    2.764e+03   -2.779e-09  
  1.0220e-09    2.764e+03   -2.779e-09  
  1.0225e-09    2.764e+03   -2.779e-09  
  1.0230e-09    2.764e+03   -2.779e-09  
  1.0235e-09    2.764e+03   -2.778e-09  
  1.0240e-09    2.764e+03   -2.779e-09  
  1.0245e-09    2.764e+03   -2.778e-09  
  1.0250e-09    2.764e+03   -2.779e-09  
  1.0255e-09    2.764e+03   -2.778e-09  
  1.0260e-09    2.764e+03   -2.779e-09  
  1.0265e-09    2.764e+03   -2.778e-09  
  1.0270e-09    2.764e+03   -2.778e-09  
  1.0275e-09    2.764e+03   -2.778e-09  
  1.0280e-09    2.764e+03   -2.778e-09  
  1.0285e-09    2.764e+03   -2.778e-09  
  1.0290e-09    2.764e+03   -2.778e-09  
  1.0295e-09    2.764e+03   -2.778e-09  
  1.0300e-09    2.764e+03   -2.778e-09  
  1.0305e-09    2.764e+03   -2.778e-09  
  1.0310e-09    2.764e+03   -2.778e-09  
  1.0315e-09    2.764e+03   -2.778e-09  
  1.0320e-09    2.764e+03   -2.778e-09  
  1.0325e-09    2.764e+03   -2.778e-09  
  1.0330e-09    2.764e+03   -2.778e-09  
  1.0335e-09    2.764e+03   -2.778e-09  
  1.0340e-09    2.764e+03   -2.778e-09  
  1.0345e-09    2.764e+03   -2.778e-09  
  1.0350e-09    2.764e+03   -2.778e-09  
  1.0355e-09    2.764e+03   -2.778e-09  
  1.0360e-09    2.764e+03   -2.778e-09  
  1.0365e-09    2.764e+03   -2.778e-09  
  1.0370e-09    2.764e+03   -2.778e-09  
  1.0375e-09    2.764e+03   -2.777e-09  
  1.0380e-09    2.764e+03   -2.778e-09  
  1.0385e-09    2.764e+03   -2.777e-09  
  1.0390e-09    2.764e+03   -2.777e-09  
  1.0395e-09    2.764e+03   -2.777e-09  
  1.0400e-09    2.764e+03   -2.778e-09  
  1.0405e-09    2.764e+03   -2.777e-09  
  1.0410e-09    2.764e+03   -2.777e-09  
  1.0415e-09    2.764e+03   -2.777e-09  
  1.0420e-09    2.764e+03   -2.777e-09  
  1.0425e-09    2.764e+03   -2.777e-09  
  1.0430e-09    2.764e+03   -2.777e-09  
  1.0435e-09    2.764e+03   -2.777e-09  
  1.0440e-09    2.764e+03   -2.777e-09  
  1.0445e-09    2.764e+03   -2.777e-09  
  1.0450e-09    2.764e+03   -2.777e-09  
  1.0455e-09    2.764e+03   -2.777e-09  
  1.0460e-09    2.764e+03   -2.777e-09  
  1.0465e-09    2.764e+03   -2.777e-09  
  1.0470e-09    2.764e+03   -2.777e-09  
  1.0475e-09    2.764e+03   -2.777e-09  
  1.0480e-09    2.764e+03   -2.777e-09  
  1.0485e-09    2.764e+03   -2.777e-09  
  1.0490e-09    2.764e+03   -2.777e-09  
  1.0495e-09    2.764e+03   -2.777e-09  
  1.0500e-09    2.764e+03   -2.777e-09  
  1.0505e-09    2.764e+03   -2.777e-09  
  1.0510e-09    2.764e+03   -2.777e-09  
  1.0515e-09    2.764e+03   -2.777e-09  
  1.0520e-09    2.764e+03   -2.777e-09  
  1.0525e-09    2.764e+03   -2.777e-09  
  1.0530e-09    2.764e+03   -2.777e-09  
  1.0535e-09    2.764e+03   -2.776e-09  
  1.0540e-09    2.764e+03   -2.777e-09  
  1.0545e-09    2.764e+03   -2.776e-09  
  1.0550e-09    2.764e+03   -2.777e-09  
  1.0555e-09    2.764e+03   -2.776e-09  
  1.0560e-09    2.764e+03   -2.777e-09  
  1.0565e-09    2.764e+03   -2.776e-09  
  1.0570e-09    2.764e+03   -2.776e-09  
  1.0575e-09    2.764e+03   -2.776e-09  
  1.0580e-09    2.764e+03   -2.776e-09  
  1.0585e-09    2.764e+03   -2.776e-09  
  1.0590e-09    2.764e+03   -2.776e-09  
  1.0595e-09    2.764e+03   -2.776e-09  
  1.0600e-09    2.764e+03   -2.776e-09  
  1.0605e-09    2.764e+03   -2.776e-09  
  1.0610e-09    2.764e+03   -2.776e-09  
  1.0615e-09    2.764e+03   -2.776e-09  
  1.0620e-09    2.764e+03   -2.776e-09  
  1.0625e-09    2.764e+03   -2.776e-09  
  1.0630e-09    2.764e+03   -2.776e-09  
  1.0635e-09    2.764e+03   -2.776e-09  
  1.0640e-09    2.764e+03   -2.776e-09  
  1.0645e-09    2.764e+03   -2.776e-09  
  1.0650e-09    2.764e+03   -2.776e-09  
  1.0655e-09    2.764e+03   -2.776e-09  
  1.0660e-09    2.764e+03   -2.776e-09  
  1.0665e-09    2.764e+03   -2.776e-09  
  1.0670e-09    2.764e+03   -2.776e-09  
  1.0675e-09    2.764e+03   -2.776e-09  
  1.0680e-09    2.764e+03   -2.776e-09  
  1.0685e-09    2.764e+03   -2.776e-09  
  1.0690e-09    2.764e+03   -2.776e-09  
  1.0695e-09    2.764e+03   -2.776e-09  
  1.0700e-09    2.764e+03   -2.776e-09  
  1.0705e-09    2.764e+03   -2.776e-09  
  1.0710e-09    2.764e+03   -2.776e-09  
  1.0715e-09    2.764e+03   -2.775e-09  
  1.0720e-09    2.764e+03   -2.776e-09  
  1.0725e-09    2.764e+03   -2.776e-09  
  1.0730e-09    2.764e+03   -2.776e-09  
  1.0735e-09    2.764e+03   -2.775e-09  
  1.0740e-09    2.764e+03   -2.775e-09  
  1.0745e-09    2.764e+03   -2.775e-09  
  1.0750e-09    2.764e+03   -2.775e-09  
  1.0755e-09    2.764e+03   -2.775e-09  
  1.0760e-09    2.764e+03   -2.775e-09  
  1.0765e-09    2.764e+03   -2.775e-09  
  1.0770e-09    2.764e+03   -2.775e-09  
  1.0775e-09    2.764e+03   -2.775e-09  
  1.0780e-09    2.764e+03   -2.775e-09  
  1.0785e-09    2.764e+03   -2.775e-09  
  1.0790e-09    2.764e+03   -2.775e-09  
  1.0795e-09    2.764e+03   -2.775e-09  
  1.0800e-09    2.764e+03   -2.775e-09  
  1.0805e-09    2.764e+03   -2.775e-09  
  1.0810e-09    2.764e+03   -2.775e-09  
  1.0815e-09    2.764e+03   -2.775e-09  
  1.0820e-09    2.764e+03   -2.775e-09  
  1.0825e-09    2.764e+03   -2.775e-09  
  1.0830e-09    2.764e+03   -2.775e-09  
  1.0835e-09    2.764e+03   -2.775e-09  
  1.0840e-09    2.764e+03   -2.775e-09  
  1.0845e-09    2.764e+03   -2.775e-09  
  1.0850e-09    2.764e+03   -2.775e-09  
  1.0855e-09    2.764e+03   -2.775e-09  
  1.0860e-09    2.764e+03   -2.775e-09  
  1.0865e-09    2.764e+03   -2.775e-09  
  1.0870e-09    2.764e+03   -2.775e-09  
  1.0875e-09    2.764e+03   -2.775e-09  
  1.0880e-09    2.764e+03   -2.775e-09  
  1.0885e-09    2.764e+03   -2.775e-09  
  1.0890e-09    2.764e+03   -2.775e-09  
  1.0895e-09    2.764e+03   -2.775e-09  
  1.0900e-09    2.764e+03   -2.775e-09  
  1.0905e-09    2.764e+03   -2.774e-09  
  1.0910e-09    2.764e+03   -2.775e-09  
  1.0915e-09    2.764e+03   -2.774e-09  
  1.0920e-09    2.764e+03   -2.775e-09  
  1.0925e-09    2.764e+03   -2.774e-09  
  1.0930e-09    2.764e+03   -2.775e-09  
  1.0935e-09    2.764e+03   -2.774e-09  
  1.0940e-09    2.764e+03   -2.774e-09  
  1.0945e-09    2.764e+03   -2.774e-09  
  1.0950e-09    2.764e+03   -2.774e-09  
  1.0955e-09    2.764e+03   -2.774e-09  
  1.0960e-09    2.764e+03   -2.774e-09  
  1.0965e-09    2.764e+03   -2.774e-09  
  1.0970e-09    2.764e+03   -2.774e-09  
  1.0975e-09    2.764e+03   -2.774e-09  
  1.0980e-09    2.764e+03   -2.774e-09  
  1.0985e-09    2.764e+03   -2.774e-09  
  1.0990e-09    2.764e+03   -2.774e-09  
  1.0995e-09    2.764e+03   -2.774e-09  
  1.1000e-09    2.764e+03   -2.774e-09  
  1.1005e-09    2.764e+03   -2.774e-09  
  1.1010e-09    2.764e+03   -2.774e-09  
  1.1015e-09    2.764e+03   -2.774e-09  
  1.1020e-09    2.764e+03   -2.774e-09  
  1.1025e-09    2.764e+03   -2.774e-09  
  1.1030e-09    2.764e+03   -2.774e-09  
  1.1035e-09    2.764e+03   -2.774e-09  
  1.1040e-09    2.764e+03   -2.774e-09  
  1.1045e-09    2.764e+03   -2.774e-09  
  1.1050e-09    2.764e+03   -2.774e-09  
  1.1055e-09    2.764e+03   -2.774e-09  
  1.1060e-09    2.764e+03   -2.774e-09  
  1.1065e-09    2.764e+03   -2.774e-09  
  1.1070e-09    2.764e+03   -2.774e-09  
  1.1075e-09    2.764e+03   -2.774e-09  
  1.1080e-09    2.764e+03   -2.774e-09  
  1.1085e-09    2.764e+03   -2.774e-09  
  1.1090e-09    2.764e+03   -2.774e-09  
  1.1095e-09    2.764e+03   -2.774e-09  
  1.1100e-09    2.764e+03   -2.774e-09  
  1.1105e-09    2.764e+03   -2.774e-09  
  1.1110e-09    2.764e+03   -2.774e-09  
  1.1115e-09    2.764e+03   -2.774e-09  
  1.1120e-09    2.764e+03   -2.774e-09  
  1.1125e-09    2.764e+03   -2.774e-09  
  1.1130e-09    2.764e+03   -2.774e-09  
  1.1135e-09    2.764e+03   -2.773e-09  
  1.1140e-09    2.764e+03   -2.774e-09  
  1.1145e-09    2.764e+03   -2.773e-09  
  1.1150e-09    2.764e+03   -2.774e-09  
  1.1155e-09    2.764e+03   -2.773e-09  
  1.1160e-09    2.764e+03   -2.774e-09  
  1.1165e-09    2.764e+03   -2.773e-09  
  1.1170e-09    2.764e+03   -2.773e-09  
  1.1175e-09    2.764e+03   -2.773e-09  
  1.1180e-09    2.764e+03   -2.773e-09  
  1.1185e-09    2.764e+03   -2.773e-09  
  1.1190e-09    2.764e+03   -2.773e-09  
  1.1195e-09    2.764e+03   -2.773e-09  
  1.1200e-09    2.764e+03   -2.773e-09  
  1.1205e-09    2.764e+03   -2.773e-09  
  1.1210e-09    2.764e+03   -2.773e-09  
  1.1215e-09    2.764e+03   -2.773e-09  
  1.1220e-09    2.764e+03   -2.773e-09  
  1.1225e-09    2.764e+03   -2.773e-09  
  1.1230e-09    2.764e+03   -2.773e-09  
  1.1235e-09    2.764e+03   -2.773e-09  
  1.1240e-09    2.764e+03   -2.773e-09  
  1.1245e-09    2.764e+03   -2.773e-09  
  1.1250e-09    2.764e+03   -2.773e-09  
  1.1255e-09    2.764e+03   -2.773e-09  
  1.1260e-09    2.764e+03   -2.773e-09  
  1.1265e-09    2.764e+03   -2.773e-09  
  1.1270e-09    2.764e+03   -2.773e-09  
  1.1275e-09    2.764e+03   -2.773e-09  
  1.1280e-09    2.764e+03   -2.773e-09  
  1.1285e-09    2.764e+03   -2.773e-09  
  1.1290e-09    2.764e+03   -2.773e-09  
  1.1295e-09    2.764e+03   -2.773e-09  
  1.1300e-09    2.764e+03   -2.773e-09  
  1.1305e-09    2.764e+03   -2.773e-09  
  1.1310e-09    2.764e+03   -2.773e-09  
  1.1315e-09    2.764e+03   -2.773e-09  
  1.1320e-09    2.764e+03   -2.773e-09  
  1.1325e-09    2.764e+03   -2.773e-09  
  1.1330e-09    2.764e+03   -2.773e-09  
  1.1335e-09    2.764e+03   -2.773e-09  
  1.1340e-09    2.764e+03   -2.773e-09  
  1.1345e-09    2.764e+03   -2.773e-09  
  1.1350e-09    2.764e+03   -2.773e-09  
  1.1355e-09    2.764e+03   -2.773e-09  
  1.1360e-09    2.764e+03   -2.773e-09  
  1.1365e-09    2.764e+03   -2.773e-09  
  1.1370e-09    2.764e+03   -2.773e-09  
  1.1375e-09    2.764e+03   -2.773e-09  
  1.1380e-09    2.764e+03   -2.773e-09  
  1.1385e-09    2.764e+03   -2.773e-09  
  1.1390e-09    2.764e+03   -2.773e-09  
  1.1395e-09    2.764e+03   -2.772e-09  
  1.1400e-09    2.764e+03   -2.773e-09  
  1.1405e-09    2.764e+03   -2.772e-09  
  1.1410e-09    2.764e+03   -2.773e-09  
  1.1415e-09    2.764e+03   -2.772e-09  
  1.1420e-09    2.764e+03   -2.773e-09  
  1.1425e-09    2.764e+03   -2.772e-09  
  1.1430e-09    2.764e+03   -2.772e-09  
  1.1435e-09    2.764e+03   -2.772e-09  
  1.1440e-09    2.764e+03   -2.772e-09  
  1.1445e-09    2.764e+03   -2.772e-09  
  1.1450e-09    2.764e+03   -2.772e-09  
  1.1455e-09    2.764e+03   -2.772e-09  
  1.1460e-09    2.764e+03   -2.772e-09  
  1.1465e-09    2.764e+03   -2.772e-09  
  1.1470e-09    2.764e+03   -2.772e-09  
  1.1475e-09    2.764e+03   -2.772e-09  
  1.1480e-09    2.764e+03   -2.772e-09  
  1.1485e-09    2.764e+03   -2.772e-09  
  1.1490e-09    2.764e+03   -2.772e-09  
  1.1495e-09    2.764e+03   -2.772e-09  
  1.1500e-09    2.764e+03   -2.772e-09  
  1.1505e-09    2.764e+03   -2.772e-09  
  1.1510e-09    2.764e+03   -2.772e-09  
  1.1515e-09    2.764e+03   -2.772e-09  
  1.1520e-09    2.764e+03   -2.772e-09  
  1.1525e-09    2.764e+03   -2.772e-09  
  1.1530e-09    2.764e+03   -2.772e-09  
  1.1535e-09    2.764e+03   -2.772e-09  
  1.1540e-09    2.764e+03   -2.772e-09  
  1.1545e-09    2.764e+03   -2.772e-09  
  1.1550e-09    2.764e+03   -2.772e-09  
  1.1555e-09    2.764e+03   -2.772e-09  
  1.1560e-09    2.764e+03   -2.772e-09  
  1.1565e-09    2.764e+03   -2.772e-09  
  1.1570e-09    2.764e+03   -2.772e-09  
  1.1575e-09    2.764e+03   -2.772e-09  
  1.1580e-09    2.764e+03   -2.772e-09  
  1.1585e-09    2.764e+03   -2.772e-09  
  1.1590e-09    2.764e+03   -2.772e-09  
  1.1595e-09    2.764e+03   -2.772e-09  
  1.1600e-09    2.764e+03   -2.772e-09  
  1.1605e-09    2.764e+03   -2.772e-09  
  1.1610e-09    2.764e+03   -2.772e-09  
  1.1615e-09    2.764e+03   -2.772e-09  
  1.1620e-09    2.764e+03   -2.772e-09  
  1.1625e-09    2.764e+03   -2.772e-09  
  1.1630e-09    2.764e+03   -2.772e-09  
  1.1635e-09    2.764e+03   -2.772e-09  
  1.1640e-09    2.764e+03   -2.772e-09  
  1.1645e-09    2.764e+03   -2.772e-09  
  1.1650e-09    2.764e+03   -2.772e-09  
  1.1655e-09    2.764e+03   -2.772e-09  
  1.1660e-09    2.764e+03   -2.772e-09  
  1.1665e-09    2.764e+03   -2.772e-09  
  1.1670e-09    2.764e+03   -2.772e-09  
  1.1675e-09    2.764e+03   -2.772e-09  
  1.1680e-09    2.764e+03   -2.771e-09  
  1.1685e-09    2.764e+03   -2.772e-09  
  1.1690e-09    2.764e+03   -2.772e-09  
  1.1695e-09    2.764e+03   -2.772e-09  
  1.1700e-09    2.764e+03   -2.772e-09  
  1.1705e-09    2.764e+03   -2.771e-09  
  1.1710e-09    2.764e+03   -2.772e-09  
  1.1715e-09    2.764e+03   -2.772e-09  
  1.1720e-09    2.764e+03   -2.772e-09  
  1.1725e-09    2.764e+03   -2.772e-09  
  1.1730e-09    2.764e+03   -2.771e-09  
  1.1735e-09    2.764e+03   -2.771e-09  
  1.1740e-09    2.764e+03   -2.771e-09  
  1.1745e-09    2.764e+03   -2.772e-09  
  1.1750e-09    2.764e+03   -2.771e-09  
  1.1755e-09    2.764e+03   -2.771e-09  
  1.1760e-09    2.764e+03   -2.771e-09  
  1.1765e-09    2.764e+03   -2.771e-09  
  1.1770e-09    2.764e+03   -2.771e-09  
  1.1775e-09    2.764e+03   -2.771e-09  
  1.1780e-09    2.764e+03   -2.771e-09  
  1.1785e-09    2.764e+03   -2.771e-09  
  1.1790e-09    2.764e+03   -2.771e-09  
  1.1795e-09    2.764e+03   -2.771e-09  
  1.1800e-09    2.764e+03   -2.771e-09  
  1.1805e-09    2.764e+03   -2.771e-09  
  1.1810e-09    2.764e+03   -2.771e-09  
  1.1815e-09    2.764e+03   -2.771e-09  
  1.1820e-09    2.764e+03   -2.771e-09  
  1.1825e-09    2.764e+03   -2.771e-09  
  1.1830e-09    2.764e+03   -2.771e-09  
  1.1835e-09    2.764e+03   -2.771e-09  
  1.1840e-09    2.764e+03   -2.771e-09  
  1.1845e-09    2.764e+03   -2.771e-09  
  1.1850e-09    2.764e+03   -2.771e-09  
  1.1855e-09    2.764e+03   -2.771e-09  
  1.1860e-09    2.764e+03   -2.771e-09  
  1.1865e-09    2.764e+03   -2.771e-09  
  1.1870e-09    2.764e+03   -2.771e-09  
  1.1875e-09    2.764e+03   -2.771e-09  
  1.1880e-09    2.764e+03   -2.771e-09  
  1.1885e-09    2.764e+03   -2.771e-09  
  1.1890e-09    2.764e+03   -2.771e-09  
  1.1895e-09    2.764e+03   -2.771e-09  
  1.1900e-09    2.764e+03   -2.771e-09  
  1.1905e-09    2.764e+03   -2.771e-09  
  1.1910e-09    2.764e+03   -2.771e-09  
  1.1915e-09    2.764e+03   -2.771e-09  
  1.1920e-09    2.764e+03   -2.771e-09  
  1.1925e-09    2.764e+03   -2.771e-09  
  1.1930e-09    2.764e+03   -2.771e-09  
  1.1935e-09    2.764e+03   -2.771e-09  
  1.1940e-09    2.764e+03   -2.771e-09  
  1.1945e-09    2.764e+03   -2.771e-09  
  1.1950e-09    2.764e+03   -2.771e-09  
  1.1955e-09    2.764e+03   -2.771e-09  
  1.1960e-09    2.764e+03   -2.771e-09  
  1.1965e-09    2.764e+03   -2.771e-09  
  1.1970e-09    2.764e+03   -2.771e-09  
  1.1975e-09    2.764e+03   -2.771e-09  
  1.1980e-09    2.764e+03   -2.771e-09  
  1.1985e-09    2.764e+03   -2.771e-09  
  1.1990e-09    2.764e+03   -2.771e-09  
  1.1995e-09    2.764e+03   -2.771e-09  
  1.2000e-09    2.764e+03   -2.771e-09  
y

          ***** job concluded
1****** HSPICE -- F-2011.09 32-BIT (Sep  5 2011) linux ******                   
 ******  
 .lib 'ibm96w90nm.lib' cmos_models

  ******  job statistics summary tnom=  25.000 temp=  25.000 *****
  
  
 ******  Machine Information  ******
 CPU:
 model name	: Intel(R) Xeon(R) CPU           E5520  @ 2.27GHz
 cpu MHz	: 2260.532
  
 OS:
 Linux version 3.2.0-4-amd64 (debian-kernel@lists.debian.org) (gcc version 4.6.3
  (Debian 4.6.3-14) ) #1 SMP Debian 3.2.41-2+deb7u2


  ******  HSPICE Threads Information  ******

  Command Line Threads Count :     1
  Available CPU Count        :    16
  Actual Threads Count       :     1


  ******  Circuit Statistics  ******
  # nodes       =       3 # elements   =       4
  # resistors   =       1 # capacitors =       1 # inductors   =       0
  # mutual_inds =       0 # vccs       =       0 # vcvs        =       0
  # cccs        =       0 # ccvs       =       0 # volt_srcs   =       1
  # curr_srcs   =       1 # diodes     =       0 # bjts        =       0
  # jfets       =       0 # mosfets    =       0 # U elements  =       0
  # T elements  =       0 # W elements =       0 # B elements  =       0
  # S elements  =       0 # P elements =       0 # va device   =       0
  # vector_srcs =       0


  ******  Runtime Statistics (seconds)  ******

  analysis           time    # points   tot. iter  conv.iter
  op point           0.00           1           6
  transient          0.04        2400        9602        4801 rev=         0
  readin             0.02
  errchk             0.00
  setup              0.00
  output             0.00


           peak memory used         85.43 megabytes
           total cpu time            0.06 seconds
           total elapsed time        0.53 seconds
           job started at     14:46:47 08/01/2013
           job ended   at     14:46:48 08/01/2013


 lic: Release hspice token(s) 
