Using: /usr/bin/time -p /synopsys/HSPICE/hspice/linux/hspice threshtest.sp
 ****** HSPICE -- F-2011.09 32-BIT (Sep  5 2011) linux ******                   
  Copyright (C) 2011 Synopsys, Inc. All Rights Reserved.                        
  Unpublished-rights reserved under US copyright laws.
  This program is protected by law and is subject to the
  terms and conditions of the license agreement from Synopsys.
  Use of this program is your acceptance to be bound by the
  license agreement. HSPICE is the trademark of Synopsys, Inc.
  Input File: threshtest.sp                                                     
  Command line options: threshtest.sp
 lic: No 'setenv LM_LICENSE_FILE' in current environment' 
 lic:  
 lic: FLEXlm: v10.8 
 lic: USER:   watkins              HOSTNAME: engr-e132-d10 
 lic: HOSTID: 002564bd04da         PID:      22723 
 lic: Using FLEXlm license file: 
 lic: 28000@131.230.191.194 
 lic: Checkout 1 hspice 
 lic: License/Maintenance for hspice will expire on 30-dec-2015/2014.09 
 lic: 1(in_use)/50(total) FLOATING license(s) on SERVER 131.230.191.194 
 lic:   
 Init: read install configuration file: /synopsys/HSPICE/hspice/meta.cfg
1****** HSPICE -- F-2011.09 32-BIT (Sep  5 2011) linux ******                   
 ******  
 $ calculate delay of gate

  ******  circuit name directory
 circuit number to circuit name directory
   number circuitname                     definition         multiplier
        0 main circuit
        1 xnand5.                         nand2inp           1.00 
1****** HSPICE -- F-2011.09 32-BIT (Sep  5 2011) linux ******                   
 ******  
 $ calculate delay of gate

  ******  mos   model parameters tnom=  25.000 temp=  25.000 *****
 Model Name: cmosn  
 BSIM4 Model (Level 54)
    MOBMOD = 2
    BINUNIT = 1
    PARAMCHK = 1
    CAPMOD = 2
    DIOMOD = 1
    RDSMOD = 0
    TRNQSMOD = 0
    ACNQSMOD = 0
    RBODYMOD = 0
    RGATEMOD = 0
    PERMOD = 1
    GEOMOD = 0
    RGEOMOD = 0
    FNOIMOD = 1
    TNOIMOD = 0
    IGCMOD = 0
    IGBMOD = 0
    STIMOD = 2
    VBFWDMOD = 0
    VERSION =    4.3 
    TOXREF =  3e-09 
    TOXE = 2.2e-09 
    TOXP = 2.2e-09 
    TOXM = 2.2e-09 
    DTOX =      0 
    EPSROX =    3.9 
    CDSC = 0.00024 
    CDSCB =      0 
    CDSCD =      0 
    CIT =      0 
    NFACTOR =  1.913 
    XJ = 1.5e-07 
    VSAT = 7.526e+05 
    A0 =      2 
    AGS =      0 
    A1 =      0 
    A2 =      1 
    AT = 3.3e+04 
    KETA =   0.05 
    NSUB =  6e+16 
    NDEP = 1.7e+17 
    NSD =  1e+20 
    NGATE =  1e+20 
    GAMMA1 =      0 
    GAMMA2 =      0 
    VBX =      0 
    VBM =     -3 
    XT = 1.55e-07 
    K1 =  0.546 
    KT1 =  -0.11 
    KT1L =      0 
    KT2 =  0.022 
    K2 = -0.1063 
    K3 = 0.001001 
    K3B =  8.256 
    LPE0 = 8.091e-08 
    LPEB = 6.541e-08 
    DVTP0 =      0 
    DVTP1 =      0 
    W0 =  1e-10 
    DVT0 = 0.02411 
    DVT1 = 0.0355 
    DVT2 = -5.083e-05 
    DVT0W =      0 
    DVT1W =      0 
    DVT2W = -0.032 
    DROUT = 0.6772 
    DSUB = 0.1841 
    VTH0 = 0.2637 
    EU = 0.1099 
    UA = 5.008e-15 
    UA1 =  1e-09 
    UB =  1e-26 
    UB1 = -1e-18 
    UC = -1e-10 
    UC1 = -5.6e-11 
    U0 =  180.6 
    UTE =   -1.5 
    VOFF = -0.03494 
    VOFFL =      0 
    MINV =      0 
    FPROUT = 0.000169 
    PDITS =      0 
    PDITSD =      0 
    PDITSL =      0 
    DELTA = 0.001742 
    RDSW =    100 
    RDSWMIN =    100 
    RDWMIN =      0 
    RSWMIN =      0 
    RDW =    100 
    RSW =    100 
    PRWG =      3 
    PRWB = 0.0997 
    PRT =      0 
    ETA0 = 0.002948 
    ETAB = -0.01177 
    PCLM = 0.4021 
    PDIBLC1 = 0.6278 
    PDIBLC2 =   0.01 
    PDIBLCB = -0.001 
    PSCBE1 = 5.553e+08 
    PSCBE2 = 3.093e-06 
    PVAG = 0.04912 
    WR =      1 
    DWG = -2.359e-08 
    DWB = 4.286e-08 
    XW =      0 
    XWREF =      0 
    XL =      0 
    XLREF =      0 
    B0 = 1.249e-06 
    B1 =  1e-07 
    ALPHA0 =      0 
    ALPHA1 =      0 
    AGIDL =      0 
    BGIDL = 2.3e+09 
    CGIDL =    0.5 
    PHIN =      0 
    EGIDL =    0.8 
    AIGC =   0.43 
    BIGC =  0.054 
    CIGC =  0.075 
    AIGSD =   0.43 
    BIGSD =  0.054 
    CIGSD =  0.075 
    AIGBACC =   0.43 
    BIGBACC =  0.054 
    CIGBACC =  0.075 
    AIGBINV =   0.35 
    BIGBINV =   0.03 
    CIGBINV =  0.006 
    NIGC =      1 
    NIGBINV =      3 
    NIGBACC =      1 
    NTOX =      1 
    EIGBINV =    1.1 
    PIGCD =      1 
    POXEDGE =      1 
    XRCRG1 =     12 
    TNOIA =    1.5 
    TNOIB =    3.5 
    NTNOI =      1 
    XRCRG2 =      1 
    BETA0 =     30 
    IJTHDFWD =    0.1 
    IJTHSFWD =    0.1 
    IJTHDREV =    0.1 
    IJTHSREV =    0.1 
    XJBVD =      1 
    XJBVS =      1 
    BVD =     10 
    BVS =     10 
    VFB =     -1 
    GBMIN =  1e-12 
    RBDB =     50 
    RBPB =     50 
    RBSB =     50 
    RBPS =     50 
    RBPD =     50 
    CGSL =      0 
    CGDL =      0 
    CKAPPAS =    0.6 
    CKAPPAD =    0.6 
    CF =      0 
    CLC =  1e-07 
    CLE =    0.6 
    DWC = 4.514e-15 
    DLC = 3.005e-12 
    DLCIG = 3.005e-12 
    DWJ = 4.514e-15 
    VFBCV =     -1 
    ACDE =      1 
    MOIN =     15 
    NOFF =      1 
    VOFFCV =      0 
    DMCG =      0 
    DMCI =      0 
    DMDG =      0 
    DMCGT =      0 
    XGW =      0 
    XGL =      0 
    RSHG =    0.1 
    NGCON =      1 
    TCJ =      0 
    TPB =      0 
    TCJSW =      0 
    TPBSW =      0 
    TCJSWG =      0 
    TPBSWG =      0 
    SK0 =      0 
    SK1 =      0 
    SK2 =      0 
    SL =  2e-06 
    SW =  2e-06 
    K =      0 
    WKETA = 0.03991 
    PVSAT =   1839 
    PKETA = -0.001059 
    TNOM =  300.1 
    CGSO =  1e-10 
    CGDO =  1e-10 
    CGBO =      0 
    XPART =    0.5 
    RSH =    7.2 
    JSS = 0.0001 
    JSWS =      0 
    JSWGS =      0 
    PBS =      1 
    MJS = 0.3003 
    PBSWS =    0.4 
    MJSWS = 0.2357 
    CJS = 0.000893 
    CJSWS = 1.59e-10 
    NJS =      1 
    PBSWGS = 0.4291 
    MJSWGS = 0.1758 
    CJSWGS = 3.065e-11 
    XTIS =      3 
    JSD = 0.0001 
    JSWD =      0 
    JSWGD =      0 
    PBD =      1 
    MJD = 0.3003 
    PBSWD =    0.4 
    MJSWD = 0.2357 
    CJD = 0.000893 
    CJSWD = 1.59e-10 
    NJD =      1 
    PBSWGD = 0.4291 
    MJSWGD = 0.1758 
    CJSWGD = 3.065e-11 
    XTID =      3 
    LMLT =      1 
    WMLT =      1 
    LINT = 3.005e-12 
    LL =      0 
    LLC =      0 
    LLN =      1 
    LW =      0 
    LWC =      0 
    LWN =      1 
    LWL =      0 
    LWLC =      0 
    LMIN =      0 
    LMAX =      1 
    WINT = 4.514e-15 
    WL =      0 
    WLC =      0 
    WLN =      1 
    WW =      0 
    WWC =      0 
    WWN =      1 
    WWL =      0 
    WWLC =      0 
    WMIN =      0 
    WMAX =      1 
    NOIA = 6.25e+41 
    NOIB = 3.125e+26 
    NOIC = 8.75e+09 
    EM = 4.1e+07 
    EF =      1 
    AF =      1 
    KF =      0 
    TRS =      0 
    TRD =      0 
    TEMPMOD  =      0 
    LAMBDA   =      0 
    VTL      =  2e+05 m/s
    LC       =  5e-09 
    XN       =      3 
    LLAMBDA  =      0 
    LVTL     =      0 
    LXN      =      0 
    WLAMBDA  =      0 
    WVTL     =      0 
    WXN      =      0 
    PLAMBDA  =      0 
    PVTL     =      0 
    PXN      =      0 
    RNOIA    =  0.577 
    RNOIB    =   0.37 
    SAREF(SA0) = 5.5e-07 m
    SBREF(SB0) = 5.5e-07 m
    WLOD     =  2e-06 m
    KU0      = -4e-07 1/m
    KVSAT    =   0.01 
    KVTH0    =  1e-09 m
    TKU0     =      0 
    LLODKU0  =  1.087 
    WLODKU0  =  1.099 
    LLODVTH  =      1 
    WLODVTH  =      1 
    LKU0     =  1e-06 
    WKU0     =  1e-06 
    PKU0     =      0 
    LKVTH0   = 1.1e-07 
    WKVTH0   = 1.1e-07 
    PKVTH0   =      0 
    STK2     =      0 
    LODK2    =      1 
    STETA0   =      0 
    LODETA0  =      1 
    LXRCRG1  =      0 
    WXRCRG1  =      0 
    PXRCRG1  =      0 
    LXRCRG2  =      0 
    WXRCRG2  =      0 
    PXRCRG2  =      0 
 Model Name: cmosp  
 BSIM4 Model (Level 54)
    MOBMOD = 2
    BINUNIT = 1
    PARAMCHK = 1
    CAPMOD = 2
    DIOMOD = 1
    RDSMOD = 0
    TRNQSMOD = 0
    ACNQSMOD = 0
    RBODYMOD = 0
    RGATEMOD = 0
    PERMOD = 1
    GEOMOD = 0
    RGEOMOD = 0
    FNOIMOD = 1
    TNOIMOD = 0
    IGCMOD = 0
    IGBMOD = 0
    STIMOD = 1
    VBFWDMOD = 0
    VERSION =    4.3 
    TOXREF =  3e-09 
    TOXE = 2.4e-09 
    TOXP = 2.4e-09 
    TOXM = 2.4e-09 
    DTOX =      0 
    EPSROX =    3.9 
    CDSC = 0.00024 
    CDSCB =      0 
    CDSCD =      0 
    CIT =      0 
    NFACTOR = 0.003481 
    XJ = 1.5e-07 
    VSAT = 8.4e+04 
    A0 =      2 
    AGS =  2.087 
    A1 =      0 
    A2 =      1 
    AT = 3.3e+04 
    KETA =   0.05 
    NSUB =  6e+16 
    NDEP = 1.7e+17 
    NSD =  1e+20 
    NGATE =  1e+20 
    GAMMA1 =      0 
    GAMMA2 =      0 
    VBX =      0 
    VBM =     -3 
    XT = 1.55e-07 
    K1 = 0.5378 
    KT1 =  -0.11 
    KT1L =      0 
    KT2 =  0.022 
    K2 = -0.1001 
    K3 =  87.19 
    K3B =     10 
    LPE0 = 3.625e-08 
    LPEB = -1.473e-08 
    DVTP0 =      0 
    DVTP1 =      0 
    W0 = 1.983e-06 
    DVT0 = 0.009269 
    DVT1 = 0.05083 
    DVT2 = -5.289e-05 
    DVT0W =      0 
    DVT1W =      0 
    DVT2W = -0.032 
    DROUT = 0.9794 
    DSUB =      1 
    VTH0 = -0.1829 
    EU =  1.638 
    UA = 2.065e-15 
    UA1 =  1e-09 
    UB =  1e-23 
    UB1 = -1e-18 
    UC = -1.838e-17 
    UC1 = -5.6e-11 
    U0 =    100 
    UTE =   -1.5 
    VOFF = -0.04221 
    VOFFL =      0 
    MINV =      0 
    FPROUT = 1.439e-05 
    PDITS =      0 
    PDITSD =      0 
    PDITSL =      0 
    DELTA = 0.01356 
    RDSW =  872.6 
    RDSWMIN =    100 
    RDWMIN =      0 
    RSWMIN =      0 
    RDW =    100 
    RSW =    100 
    PRWG = 0.1222 
    PRWB =    0.1 
    PRT =      0 
    ETA0 =  1e-05 
    ETAB =      0 
    PCLM =  0.534 
    PDIBLC1 = 0.5062 
    PDIBLC2 = 0.00473 
    PDIBLCB =      0 
    PSCBE1 = 1.696e+08 
    PSCBE2 =  3e-06 
    PVAG = 0.4223 
    WR =      1 
    DWG = -7.761e-08 
    DWB = 2.989e-08 
    XW =      0 
    XWREF =      0 
    XL =      0 
    XLREF =      0 
    B0 = 1.734e-07 
    B1 =  1e-07 
    ALPHA0 =      0 
    ALPHA1 =      0 
    AGIDL =      0 
    BGIDL = 2.3e+09 
    CGIDL =    0.5 
    PHIN =      0 
    EGIDL =    0.8 
    AIGC =   0.31 
    BIGC =  0.024 
    CIGC =   0.03 
    AIGSD =   0.31 
    BIGSD =  0.024 
    CIGSD =   0.03 
    AIGBACC =   0.43 
    BIGBACC =  0.054 
    CIGBACC =  0.075 
    AIGBINV =   0.35 
    BIGBINV =   0.03 
    CIGBINV =  0.006 
    NIGC =      1 
    NIGBINV =      3 
    NIGBACC =      1 
    NTOX =      1 
    EIGBINV =    1.1 
    PIGCD =      1 
    POXEDGE =      1 
    XRCRG1 =     12 
    TNOIA =    1.5 
    TNOIB =    3.5 
    NTNOI =      1 
    XRCRG2 =      1 
    BETA0 =     30 
    IJTHDFWD =    0.1 
    IJTHSFWD =    0.1 
    IJTHDREV =    0.1 
    IJTHSREV =    0.1 
    XJBVD =      1 
    XJBVS =      1 
    BVD =     10 
    BVS =     10 
    VFB =     -1 
    GBMIN =  1e-12 
    RBDB =     50 
    RBPB =     50 
    RBSB =     50 
    RBPS =     50 
    RBPD =     50 
    CGSL =      0 
    CGDL =      0 
    CKAPPAS =    0.6 
    CKAPPAD =    0.6 
    CF =      0 
    CLC =  1e-07 
    CLE =    0.6 
    DWC = 1.54e-08 
    DLC = 1.382e-10 
    DLCIG = 1.382e-10 
    DWJ = 1.54e-08 
    VFBCV =     -1 
    ACDE =      1 
    MOIN =     15 
    NOFF =      1 
    VOFFCV =      0 
    DMCG =      0 
    DMCI =      0 
    DMDG =      0 
    DMCGT =      0 
    XGW =      0 
    XGL =      0 
    RSHG =    0.1 
    NGCON =      1 
    TCJ =      0 
    TPB =      0 
    TCJSW =      0 
    TPBSW =      0 
    TCJSWG =      0 
    TPBSWG =      0 
    SK0 =      0 
    SK1 =      0 
    SK2 =      0 
    SL =  2e-06 
    SW =  2e-06 
    K =      0 
    WKETA = -0.03641 
    PVSAT =   -100 
    TNOM =  300.1 
    CGSO =  1e-10 
    CGDO =  1e-10 
    CGBO =      0 
    XPART =    0.5 
    RSH =    7.6 
    JSS = 0.0001 
    JSWS =      0 
    JSWGS =      0 
    PBS =      1 
    MJS =  0.475 
    PBSWS =  0.965 
    MJSWS =  0.432 
    CJS = 6.434e-09 
    CJSWS = 1.084e-09 
    NJS =      1 
    PBSWGS = 0.9009 
    MJSWGS = 0.2169 
    CJSWGS = 6.3e-11 
    XTIS =      3 
    JSD = 0.0001 
    JSWD =      0 
    JSWGD =      0 
    PBD =      1 
    MJD =  0.475 
    PBSWD =  0.965 
    MJSWD =  0.432 
    CJD = 6.434e-09 
    CJSWD = 1.084e-09 
    NJD =      1 
    PBSWGD = 0.9009 
    MJSWGD = 0.2169 
    CJSWGD = 6.3e-11 
    XTID =      3 
    LMLT =      1 
    WMLT =      1 
    LINT = 1.382e-10 
    LL =      0 
    LLC =      0 
    LLN =      1 
    LW =      0 
    LWC =      0 
    LWN =      1 
    LWL =      0 
    LWLC =      0 
    LMIN =      0 
    LMAX =      1 
    WINT = 1.54e-08 
    WL =      0 
    WLC =      0 
    WLN =      1 
    WW =      0 
    WWC =      0 
    WWN =      1 
    WWL =      0 
    WWLC =      0 
    WMIN =      0 
    WMAX =      1 
    NOIA = 6.188e+40 
    NOIB = 1.5e+25 
    NOIC = 8.75e+09 
    EM = 4.1e+07 
    EF =      1 
    AF =      1 
    KF =      0 
    TRS =      0 
    TRD =      0 
    TEMPMOD  =      0 
    LAMBDA   =      0 
    VTL      =  2e+05 m/s
    LC       =  5e-09 
    XN       =      3 
    LLAMBDA  =      0 
    LVTL     =      0 
    LXN      =      0 
    WLAMBDA  =      0 
    WVTL     =      0 
    WXN      =      0 
    PLAMBDA  =      0 
    PVTL     =      0 
    PXN      =      0 
    RNOIA    =  0.577 
    RNOIB    =   0.37 
    SAREF(SA0) =  1e-06 m
    SBREF(SB0) =  1e-06 m
    WLOD     =      0 m
    KU0      =      0 1/m
    KVSAT    =      0 
    KVTH0    =      0 m
    TKU0     =      0 
    LLODKU0  =      0 
    WLODKU0  =      0 
    LLODVTH  =      0 
    WLODVTH  =      0 
    LKU0     =      0 
    WKU0     =      0 
    PKU0     =      0 
    LKVTH0   =      0 
    WKVTH0   =      0 
    PKVTH0   =      0 
    STK2     =      0 
    LODK2    =      1 
    STETA0   =      0 
    LODETA0  =      1 
    LXRCRG1  =      0 
    WXRCRG1  =      0 
    PXRCRG1  =      0 
    LXRCRG2  =      0 
    WXRCRG2  =      0 
    PXRCRG2  =      0 
  **info** (threshtest.sp:51) DC voltage reset to initial transient source value              in source        0:vinh                new dc=  0.1000D+01
  **warning** (threshtest.sp:53) Capacitance value for element cload <=0; check the value.
  **warning** (threshtest.sp:81) Unable to find referenced node p11; Output variable ignored. Specify a valid node.
  
  **warning** (threshtest.sp:18) Only 1 connection at node p9 called in element iup.
 related element is ignored, and node is isolated.


 **warning** the following singular supplies were terminated to 1 meg resistor 
   supply       node1            node2
  vinc                    0:c                defined in subckt 0                     0:0                defined in subckt 0               
      
 **info** set option symb=1 internally to help for convergence.
 *****************************************************************
 ******  option summary
 ******
 runlvl  = 3         bypass  = 2         
  Opening plot unit= 15
 file=threshtest.pa0                                                           

1****** HSPICE -- F-2011.09 32-BIT (Sep  5 2011) linux ******                   
 ******  
 $ calculate delay of gate

  ******  operating point information tnom=  25.000 temp=  25.000 *****
 ***** operating point status is voltage   simulation time is     0.     
    node    =voltage      node    =voltage      node    =voltage

 +0:b       =   1.0000  0:c       =   1.0000  0:p12     =   1.0000 
 +0:p13     = 1.077e-05 0:p9      =   0.      0:vdd     =   1.0000 
 +1:cn1     = 5.386e-06


 maximum nodal capacitance=   1.447E-15         on node     0:vdd             

    nodal  capacitance table 

    node    =    cap      node    =    cap      node    =    cap

 +0:b       = 2.269e-16 0:c       =   0.      0:p12     = 2.269e-16
 +0:p13     = 5.721e-16 0:p9      =   0.      0:vdd     = 1.447e-15
 +1:cn1     = 1.283e-16

 
 ******  
 $ calculate delay of gate

  ******  transient analysis tnom=  25.000 temp=  25.000 *****

   *** data name = setsrce  1st sweep ***

   minval=  4.9078E-01    at=  4.4800E-10
               from=  0.0000E+00    to=  1.2000E-09
   maxval=  1.0000E+00    at=  0.0000E+00
               from=  0.0000E+00    to=  1.2000E-09
  **warning** (threshtest.sp:81) "FIND" function event is undefined. Please specify a valid event. Measure failed.
   minthresh= failed
   maxthresh= failed

          ***** job concluded
1****** HSPICE -- F-2011.09 32-BIT (Sep  5 2011) linux ******                   
 ******  
 $ calculate delay of gate

  ******  job statistics summary tnom=  25.000 temp=  25.000 *****
  
  
 ******  Machine Information  ******
 CPU:
 model name	: Intel(R) Xeon(R) CPU           E5520  @ 2.27GHz
 cpu MHz	: 2260.863
  
 OS:
 Linux version 3.16.0-4-amd64 (debian-kernel@lists.debian.org) (gcc version 4.8.
 4 (Debian 4.8.4-1) ) #1 SMP Debian 3.16.7-ckt9-3~deb8u1 (2015-04-24)


  ******  HSPICE Threads Information  ******

  Command Line Threads Count :     1
  Available CPU Count        :    16
  Actual Threads Count       :     1


  ******  Circuit Statistics  ******
  # nodes       =       8 # elements   =      10
  # resistors   =       1 # capacitors =       1 # inductors   =       0
  # mutual_inds =       0 # vccs       =       0 # vcvs        =       0
  # cccs        =       0 # ccvs       =       0 # volt_srcs   =       4
  # curr_srcs   =       0 # diodes     =       0 # bjts        =       0
  # jfets       =       0 # mosfets    =       4 # U elements  =       0
  # T elements  =       0 # W elements =       0 # B elements  =       0
  # S elements  =       0 # P elements =       0 # va device   =       0
  # vector_srcs =       0


  ******  Runtime Statistics (seconds)  ******

  analysis           time    # points   tot. iter  conv.iter
  op point           0.00           1           3
  transient          0.10        2400       10563        4817 rev=         1
  readin             0.04
  errchk             0.00
  setup              0.00
  output             0.00


           peak memory used         86.76 megabytes
           total cpu time            0.14 seconds
           total elapsed time        0.91 seconds
           job started at     17:12:54 08/26/2015
           job ended   at     17:12:55 08/26/2015


1****** HSPICE -- F-2011.09 32-BIT (Sep  5 2011) linux ******                   
 ******  
 case 1:

  ******  circuit name directory
 circuit number to circuit name directory
   number circuitname                     definition         multiplier
        0 main circuit
        1 xnand5.                         nand2inp           1.00 
1****** HSPICE -- F-2011.09 32-BIT (Sep  5 2011) linux ******                   
 ******  
 case 1:

  ******  mos   model parameters tnom=  25.000 temp=  25.000 *****
 Model Name: cmosn  
 BSIM4 Model (Level 54)
    MOBMOD = 2
    BINUNIT = 1
    PARAMCHK = 1
    CAPMOD = 2
    DIOMOD = 1
    RDSMOD = 0
    TRNQSMOD = 0
    ACNQSMOD = 0
    RBODYMOD = 0
    RGATEMOD = 0
    PERMOD = 1
    GEOMOD = 0
    RGEOMOD = 0
    FNOIMOD = 1
    TNOIMOD = 0
    IGCMOD = 0
    IGBMOD = 0
    STIMOD = 2
    VBFWDMOD = 0
    VERSION =    4.3 
    TOXREF =  3e-09 
    TOXE = 2.2e-09 
    TOXP = 2.2e-09 
    TOXM = 2.2e-09 
    DTOX =      0 
    EPSROX =    3.9 
    CDSC = 0.00024 
    CDSCB =      0 
    CDSCD =      0 
    CIT =      0 
    NFACTOR =  1.913 
    XJ = 1.5e-07 
    VSAT = 7.526e+05 
    A0 =      2 
    AGS =      0 
    A1 =      0 
    A2 =      1 
    AT = 3.3e+04 
    KETA =   0.05 
    NSUB =  6e+16 
    NDEP = 1.7e+17 
    NSD =  1e+20 
    NGATE =  1e+20 
    GAMMA1 =      0 
    GAMMA2 =      0 
    VBX =      0 
    VBM =     -3 
    XT = 1.55e-07 
    K1 =  0.546 
    KT1 =  -0.11 
    KT1L =      0 
    KT2 =  0.022 
    K2 = -0.1063 
    K3 = 0.001001 
    K3B =  8.256 
    LPE0 = 8.091e-08 
    LPEB = 6.541e-08 
    DVTP0 =      0 
    DVTP1 =      0 
    W0 =  1e-10 
    DVT0 = 0.02411 
    DVT1 = 0.0355 
    DVT2 = -5.083e-05 
    DVT0W =      0 
    DVT1W =      0 
    DVT2W = -0.032 
    DROUT = 0.6772 
    DSUB = 0.1841 
    VTH0 = 0.2637 
    EU = 0.1099 
    UA = 5.008e-15 
    UA1 =  1e-09 
    UB =  1e-26 
    UB1 = -1e-18 
    UC = -1e-10 
    UC1 = -5.6e-11 
    U0 =  180.6 
    UTE =   -1.5 
    VOFF = -0.03494 
    VOFFL =      0 
    MINV =      0 
    FPROUT = 0.000169 
    PDITS =      0 
    PDITSD =      0 
    PDITSL =      0 
    DELTA = 0.001742 
    RDSW =    100 
    RDSWMIN =    100 
    RDWMIN =      0 
    RSWMIN =      0 
    RDW =    100 
    RSW =    100 
    PRWG =      3 
    PRWB = 0.0997 
    PRT =      0 
    ETA0 = 0.002948 
    ETAB = -0.01177 
    PCLM = 0.4021 
    PDIBLC1 = 0.6278 
    PDIBLC2 =   0.01 
    PDIBLCB = -0.001 
    PSCBE1 = 5.553e+08 
    PSCBE2 = 3.093e-06 
    PVAG = 0.04912 
    WR =      1 
    DWG = -2.359e-08 
    DWB = 4.286e-08 
    XW =      0 
    XWREF =      0 
    XL =      0 
    XLREF =      0 
    B0 = 1.249e-06 
    B1 =  1e-07 
    ALPHA0 =      0 
    ALPHA1 =      0 
    AGIDL =      0 
    BGIDL = 2.3e+09 
    CGIDL =    0.5 
    PHIN =      0 
    EGIDL =    0.8 
    AIGC =   0.43 
    BIGC =  0.054 
    CIGC =  0.075 
    AIGSD =   0.43 
    BIGSD =  0.054 
    CIGSD =  0.075 
    AIGBACC =   0.43 
    BIGBACC =  0.054 
    CIGBACC =  0.075 
    AIGBINV =   0.35 
    BIGBINV =   0.03 
    CIGBINV =  0.006 
    NIGC =      1 
    NIGBINV =      3 
    NIGBACC =      1 
    NTOX =      1 
    EIGBINV =    1.1 
    PIGCD =      1 
    POXEDGE =      1 
    XRCRG1 =     12 
    TNOIA =    1.5 
    TNOIB =    3.5 
    NTNOI =      1 
    XRCRG2 =      1 
    BETA0 =     30 
    IJTHDFWD =    0.1 
    IJTHSFWD =    0.1 
    IJTHDREV =    0.1 
    IJTHSREV =    0.1 
    XJBVD =      1 
    XJBVS =      1 
    BVD =     10 
    BVS =     10 
    VFB =     -1 
    GBMIN =  1e-12 
    RBDB =     50 
    RBPB =     50 
    RBSB =     50 
    RBPS =     50 
    RBPD =     50 
    CGSL =      0 
    CGDL =      0 
    CKAPPAS =    0.6 
    CKAPPAD =    0.6 
    CF =      0 
    CLC =  1e-07 
    CLE =    0.6 
    DWC = 4.514e-15 
    DLC = 3.005e-12 
    DLCIG = 3.005e-12 
    DWJ = 4.514e-15 
    VFBCV =     -1 
    ACDE =      1 
    MOIN =     15 
    NOFF =      1 
    VOFFCV =      0 
    DMCG =      0 
    DMCI =      0 
    DMDG =      0 
    DMCGT =      0 
    XGW =      0 
    XGL =      0 
    RSHG =    0.1 
    NGCON =      1 
    TCJ =      0 
    TPB =      0 
    TCJSW =      0 
    TPBSW =      0 
    TCJSWG =      0 
    TPBSWG =      0 
    SK0 =      0 
    SK1 =      0 
    SK2 =      0 
    SL =  2e-06 
    SW =  2e-06 
    K =      0 
    WKETA = 0.03991 
    PVSAT =   1839 
    PKETA = -0.001059 
    TNOM =  300.1 
    CGSO =  1e-10 
    CGDO =  1e-10 
    CGBO =      0 
    XPART =    0.5 
    RSH =    7.2 
    JSS = 0.0001 
    JSWS =      0 
    JSWGS =      0 
    PBS =      1 
    MJS = 0.3003 
    PBSWS =    0.4 
    MJSWS = 0.2357 
    CJS = 0.000893 
    CJSWS = 1.59e-10 
    NJS =      1 
    PBSWGS = 0.4291 
    MJSWGS = 0.1758 
    CJSWGS = 3.065e-11 
    XTIS =      3 
    JSD = 0.0001 
    JSWD =      0 
    JSWGD =      0 
    PBD =      1 
    MJD = 0.3003 
    PBSWD =    0.4 
    MJSWD = 0.2357 
    CJD = 0.000893 
    CJSWD = 1.59e-10 
    NJD =      1 
    PBSWGD = 0.4291 
    MJSWGD = 0.1758 
    CJSWGD = 3.065e-11 
    XTID =      3 
    LMLT =      1 
    WMLT =      1 
    LINT = 3.005e-12 
    LL =      0 
    LLC =      0 
    LLN =      1 
    LW =      0 
    LWC =      0 
    LWN =      1 
    LWL =      0 
    LWLC =      0 
    LMIN =      0 
    LMAX =      1 
    WINT = 4.514e-15 
    WL =      0 
    WLC =      0 
    WLN =      1 
    WW =      0 
    WWC =      0 
    WWN =      1 
    WWL =      0 
    WWLC =      0 
    WMIN =      0 
    WMAX =      1 
    NOIA = 6.25e+41 
    NOIB = 3.125e+26 
    NOIC = 8.75e+09 
    EM = 4.1e+07 
    EF =      1 
    AF =      1 
    KF =      0 
    TRS =      0 
    TRD =      0 
    TEMPMOD  =      0 
    LAMBDA   =      0 
    VTL      =  2e+05 m/s
    LC       =  5e-09 
    XN       =      3 
    LLAMBDA  =      0 
    LVTL     =      0 
    LXN      =      0 
    WLAMBDA  =      0 
    WVTL     =      0 
    WXN      =      0 
    PLAMBDA  =      0 
    PVTL     =      0 
    PXN      =      0 
    RNOIA    =  0.577 
    RNOIB    =   0.37 
    SAREF(SA0) = 5.5e-07 m
    SBREF(SB0) = 5.5e-07 m
    WLOD     =  2e-06 m
    KU0      = -4e-07 1/m
    KVSAT    =   0.01 
    KVTH0    =  1e-09 m
    TKU0     =      0 
    LLODKU0  =  1.087 
    WLODKU0  =  1.099 
    LLODVTH  =      1 
    WLODVTH  =      1 
    LKU0     =  1e-06 
    WKU0     =  1e-06 
    PKU0     =      0 
    LKVTH0   = 1.1e-07 
    WKVTH0   = 1.1e-07 
    PKVTH0   =      0 
    STK2     =      0 
    LODK2    =      1 
    STETA0   =      0 
    LODETA0  =      1 
    LXRCRG1  =      0 
    WXRCRG1  =      0 
    PXRCRG1  =      0 
    LXRCRG2  =      0 
    WXRCRG2  =      0 
    PXRCRG2  =      0 
 Model Name: cmosp  
 BSIM4 Model (Level 54)
    MOBMOD = 2
    BINUNIT = 1
    PARAMCHK = 1
    CAPMOD = 2
    DIOMOD = 1
    RDSMOD = 0
    TRNQSMOD = 0
    ACNQSMOD = 0
    RBODYMOD = 0
    RGATEMOD = 0
    PERMOD = 1
    GEOMOD = 0
    RGEOMOD = 0
    FNOIMOD = 1
    TNOIMOD = 0
    IGCMOD = 0
    IGBMOD = 0
    STIMOD = 1
    VBFWDMOD = 0
    VERSION =    4.3 
    TOXREF =  3e-09 
    TOXE = 2.4e-09 
    TOXP = 2.4e-09 
    TOXM = 2.4e-09 
    DTOX =      0 
    EPSROX =    3.9 
    CDSC = 0.00024 
    CDSCB =      0 
    CDSCD =      0 
    CIT =      0 
    NFACTOR = 0.003481 
    XJ = 1.5e-07 
    VSAT = 8.4e+04 
    A0 =      2 
    AGS =  2.087 
    A1 =      0 
    A2 =      1 
    AT = 3.3e+04 
    KETA =   0.05 
    NSUB =  6e+16 
    NDEP = 1.7e+17 
    NSD =  1e+20 
    NGATE =  1e+20 
    GAMMA1 =      0 
    GAMMA2 =      0 
    VBX =      0 
    VBM =     -3 
    XT = 1.55e-07 
    K1 = 0.5378 
    KT1 =  -0.11 
    KT1L =      0 
    KT2 =  0.022 
    K2 = -0.1001 
    K3 =  87.19 
    K3B =     10 
    LPE0 = 3.625e-08 
    LPEB = -1.473e-08 
    DVTP0 =      0 
    DVTP1 =      0 
    W0 = 1.983e-06 
    DVT0 = 0.009269 
    DVT1 = 0.05083 
    DVT2 = -5.289e-05 
    DVT0W =      0 
    DVT1W =      0 
    DVT2W = -0.032 
    DROUT = 0.9794 
    DSUB =      1 
    VTH0 = -0.1829 
    EU =  1.638 
    UA = 2.065e-15 
    UA1 =  1e-09 
    UB =  1e-23 
    UB1 = -1e-18 
    UC = -1.838e-17 
    UC1 = -5.6e-11 
    U0 =    100 
    UTE =   -1.5 
    VOFF = -0.04221 
    VOFFL =      0 
    MINV =      0 
    FPROUT = 1.439e-05 
    PDITS =      0 
    PDITSD =      0 
    PDITSL =      0 
    DELTA = 0.01356 
    RDSW =  872.6 
    RDSWMIN =    100 
    RDWMIN =      0 
    RSWMIN =      0 
    RDW =    100 
    RSW =    100 
    PRWG = 0.1222 
    PRWB =    0.1 
    PRT =      0 
    ETA0 =  1e-05 
    ETAB =      0 
    PCLM =  0.534 
    PDIBLC1 = 0.5062 
    PDIBLC2 = 0.00473 
    PDIBLCB =      0 
    PSCBE1 = 1.696e+08 
    PSCBE2 =  3e-06 
    PVAG = 0.4223 
    WR =      1 
    DWG = -7.761e-08 
    DWB = 2.989e-08 
    XW =      0 
    XWREF =      0 
    XL =      0 
    XLREF =      0 
    B0 = 1.734e-07 
    B1 =  1e-07 
    ALPHA0 =      0 
    ALPHA1 =      0 
    AGIDL =      0 
    BGIDL = 2.3e+09 
    CGIDL =    0.5 
    PHIN =      0 
    EGIDL =    0.8 
    AIGC =   0.31 
    BIGC =  0.024 
    CIGC =   0.03 
    AIGSD =   0.31 
    BIGSD =  0.024 
    CIGSD =   0.03 
    AIGBACC =   0.43 
    BIGBACC =  0.054 
    CIGBACC =  0.075 
    AIGBINV =   0.35 
    BIGBINV =   0.03 
    CIGBINV =  0.006 
    NIGC =      1 
    NIGBINV =      3 
    NIGBACC =      1 
    NTOX =      1 
    EIGBINV =    1.1 
    PIGCD =      1 
    POXEDGE =      1 
    XRCRG1 =     12 
    TNOIA =    1.5 
    TNOIB =    3.5 
    NTNOI =      1 
    XRCRG2 =      1 
    BETA0 =     30 
    IJTHDFWD =    0.1 
    IJTHSFWD =    0.1 
    IJTHDREV =    0.1 
    IJTHSREV =    0.1 
    XJBVD =      1 
    XJBVS =      1 
    BVD =     10 
    BVS =     10 
    VFB =     -1 
    GBMIN =  1e-12 
    RBDB =     50 
    RBPB =     50 
    RBSB =     50 
    RBPS =     50 
    RBPD =     50 
    CGSL =      0 
    CGDL =      0 
    CKAPPAS =    0.6 
    CKAPPAD =    0.6 
    CF =      0 
    CLC =  1e-07 
    CLE =    0.6 
    DWC = 1.54e-08 
    DLC = 1.382e-10 
    DLCIG = 1.382e-10 
    DWJ = 1.54e-08 
    VFBCV =     -1 
    ACDE =      1 
    MOIN =     15 
    NOFF =      1 
    VOFFCV =      0 
    DMCG =      0 
    DMCI =      0 
    DMDG =      0 
    DMCGT =      0 
    XGW =      0 
    XGL =      0 
    RSHG =    0.1 
    NGCON =      1 
    TCJ =      0 
    TPB =      0 
    TCJSW =      0 
    TPBSW =      0 
    TCJSWG =      0 
    TPBSWG =      0 
    SK0 =      0 
    SK1 =      0 
    SK2 =      0 
    SL =  2e-06 
    SW =  2e-06 
    K =      0 
    WKETA = -0.03641 
    PVSAT =   -100 
    TNOM =  300.1 
    CGSO =  1e-10 
    CGDO =  1e-10 
    CGBO =      0 
    XPART =    0.5 
    RSH =    7.6 
    JSS = 0.0001 
    JSWS =      0 
    JSWGS =      0 
    PBS =      1 
    MJS =  0.475 
    PBSWS =  0.965 
    MJSWS =  0.432 
    CJS = 6.434e-09 
    CJSWS = 1.084e-09 
    NJS =      1 
    PBSWGS = 0.9009 
    MJSWGS = 0.2169 
    CJSWGS = 6.3e-11 
    XTIS =      3 
    JSD = 0.0001 
    JSWD =      0 
    JSWGD =      0 
    PBD =      1 
    MJD =  0.475 
    PBSWD =  0.965 
    MJSWD =  0.432 
    CJD = 6.434e-09 
    CJSWD = 1.084e-09 
    NJD =      1 
    PBSWGD = 0.9009 
    MJSWGD = 0.2169 
    CJSWGD = 6.3e-11 
    XTID =      3 
    LMLT =      1 
    WMLT =      1 
    LINT = 1.382e-10 
    LL =      0 
    LLC =      0 
    LLN =      1 
    LW =      0 
    LWC =      0 
    LWN =      1 
    LWL =      0 
    LWLC =      0 
    LMIN =      0 
    LMAX =      1 
    WINT = 1.54e-08 
    WL =      0 
    WLC =      0 
    WLN =      1 
    WW =      0 
    WWC =      0 
    WWN =      1 
    WWL =      0 
    WWLC =      0 
    WMIN =      0 
    WMAX =      1 
    NOIA = 6.188e+40 
    NOIB = 1.5e+25 
    NOIC = 8.75e+09 
    EM = 4.1e+07 
    EF =      1 
    AF =      1 
    KF =      0 
    TRS =      0 
    TRD =      0 
    TEMPMOD  =      0 
    LAMBDA   =      0 
    VTL      =  2e+05 m/s
    LC       =  5e-09 
    XN       =      3 
    LLAMBDA  =      0 
    LVTL     =      0 
    LXN      =      0 
    WLAMBDA  =      0 
    WVTL     =      0 
    WXN      =      0 
    PLAMBDA  =      0 
    PVTL     =      0 
    PXN      =      0 
    RNOIA    =  0.577 
    RNOIB    =   0.37 
    SAREF(SA0) =  1e-06 m
    SBREF(SB0) =  1e-06 m
    WLOD     =      0 m
    KU0      =      0 1/m
    KVSAT    =      0 
    KVTH0    =      0 m
    TKU0     =      0 
    LLODKU0  =      0 
    WLODKU0  =      0 
    LLODVTH  =      0 
    WLODVTH  =      0 
    LKU0     =      0 
    WKU0     =      0 
    PKU0     =      0 
    LKVTH0   =      0 
    WKVTH0   =      0 
    PKVTH0   =      0 
    STK2     =      0 
    LODK2    =      1 
    STETA0   =      0 
    LODETA0  =      1 
    LXRCRG1  =      0 
    WXRCRG1  =      0 
    PXRCRG1  =      0 
    LXRCRG2  =      0 
    WXRCRG2  =      0 
    PXRCRG2  =      0 
  **info** (threshtest.sp:51) DC voltage reset to initial transient source value              in source        0:vinh                new dc=  0.1000D+01
  **warning** (threshtest.sp:81) Unable to find referenced node p11; Output variable ignored. Specify a valid node.
  

 **warning** the following singular supplies were terminated to 1 meg resistor 
   supply       node1            node2
  vinc                    0:c                defined in subckt 0                     0:0                defined in subckt 0               
      
 **info** set option symb=1 internally to help for convergence.
 *****************************************************************
 ******  option summary
 ******
 runlvl  = 3         bypass  = 2         
  Opening plot unit= 15
 file=threshtest.pa1                                                           

1****** HSPICE -- F-2011.09 32-BIT (Sep  5 2011) linux ******                   
 ******  
 case 1:

  ******  operating point information tnom=  25.000 temp=  25.000 *****
 ***** operating point status is voltage   simulation time is     0.     
    node    =voltage      node    =voltage      node    =voltage

 +0:b       =   1.0000  0:c       =   1.0000  0:p12     =   1.0000 
 +0:p13     = 1.077e-05 0:p9      =   0.      0:vdd     =   1.0000 
 +1:cn1     = 5.386e-06


 maximum nodal capacitance=   1.447E-15         on node     0:vdd             

    nodal  capacitance table 

    node    =    cap      node    =    cap      node    =    cap

 +0:b       = 2.269e-16 0:c       =   0.      0:p12     = 1.227e-15
 +0:p13     = 5.721e-16 0:p9      =   0.      0:vdd     = 1.447e-15
 +1:cn1     = 1.283e-16

 
 ******  
 case 1:

  ******  transient analysis tnom=  25.000 temp=  25.000 *****

   *** data name = setsrce  1st sweep ***

   minval=  4.9078E-01    at=  4.4800E-10
               from=  0.0000E+00    to=  1.2000E-09
   maxval=  1.0000E+00    at=  0.0000E+00
               from=  0.0000E+00    to=  1.2000E-09
  **warning** (threshtest.sp:81) "FIND" function event is undefined. Please specify a valid event. Measure failed.
   minthresh= failed
   maxthresh= failed

          ***** job concluded
1****** HSPICE -- F-2011.09 32-BIT (Sep  5 2011) linux ******                   
 ******  
 case 1:

  ******  job statistics summary tnom=  25.000 temp=  25.000 *****
  
  
 ******  Machine Information  ******
 CPU:
 model name	: Intel(R) Xeon(R) CPU           E5520  @ 2.27GHz
 cpu MHz	: 2260.863
  
 OS:
 Linux version 3.16.0-4-amd64 (debian-kernel@lists.debian.org) (gcc version 4.8.
 4 (Debian 4.8.4-1) ) #1 SMP Debian 3.16.7-ckt9-3~deb8u1 (2015-04-24)


  ******  HSPICE Threads Information  ******

  Command Line Threads Count :     1
  Available CPU Count        :    16
  Actual Threads Count       :     1


  ******  Circuit Statistics  ******
  # nodes       =       8 # elements   =      10
  # resistors   =       1 # capacitors =       1 # inductors   =       0
  # mutual_inds =       0 # vccs       =       0 # vcvs        =       0
  # cccs        =       0 # ccvs       =       0 # volt_srcs   =       4
  # curr_srcs   =       0 # diodes     =       0 # bjts        =       0
  # jfets       =       0 # mosfets    =       4 # U elements  =       0
  # T elements  =       0 # W elements =       0 # B elements  =       0
  # S elements  =       0 # P elements =       0 # va device   =       0
  # vector_srcs =       0


  ******  Runtime Statistics (seconds)  ******

  analysis           time    # points   tot. iter  conv.iter
  op point           1.36           1           3
  transient          0.09        2400       10053        4823 rev=         1
  readin             0.03
  errchk             0.00
  setup              0.00
  output             0.00


           peak memory used         87.02 megabytes
           total cpu time            0.80 seconds
           total elapsed time        0.80 seconds
           job started at     17:12:54 08/26/2015
           job ended   at     17:12:56 08/26/2015


1****** HSPICE -- F-2011.09 32-BIT (Sep  5 2011) linux ******                   
 ******  
 case 2:

  ******  circuit name directory
 circuit number to circuit name directory
   number circuitname                     definition         multiplier
        0 main circuit
        1 xnand5.                         nand2inp           1.00 
1****** HSPICE -- F-2011.09 32-BIT (Sep  5 2011) linux ******                   
 ******  
 case 2:

  ******  mos   model parameters tnom=  25.000 temp=  25.000 *****
 Model Name: cmosn  
 BSIM4 Model (Level 54)
    MOBMOD = 2
    BINUNIT = 1
    PARAMCHK = 1
    CAPMOD = 2
    DIOMOD = 1
    RDSMOD = 0
    TRNQSMOD = 0
    ACNQSMOD = 0
    RBODYMOD = 0
    RGATEMOD = 0
    PERMOD = 1
    GEOMOD = 0
    RGEOMOD = 0
    FNOIMOD = 1
    TNOIMOD = 0
    IGCMOD = 0
    IGBMOD = 0
    STIMOD = 2
    VBFWDMOD = 0
    VERSION =    4.3 
    TOXREF =  3e-09 
    TOXE = 2.2e-09 
    TOXP = 2.2e-09 
    TOXM = 2.2e-09 
    DTOX =      0 
    EPSROX =    3.9 
    CDSC = 0.00024 
    CDSCB =      0 
    CDSCD =      0 
    CIT =      0 
    NFACTOR =  1.913 
    XJ = 1.5e-07 
    VSAT = 7.526e+05 
    A0 =      2 
    AGS =      0 
    A1 =      0 
    A2 =      1 
    AT = 3.3e+04 
    KETA =   0.05 
    NSUB =  6e+16 
    NDEP = 1.7e+17 
    NSD =  1e+20 
    NGATE =  1e+20 
    GAMMA1 =      0 
    GAMMA2 =      0 
    VBX =      0 
    VBM =     -3 
    XT = 1.55e-07 
    K1 =  0.546 
    KT1 =  -0.11 
    KT1L =      0 
    KT2 =  0.022 
    K2 = -0.1063 
    K3 = 0.001001 
    K3B =  8.256 
    LPE0 = 8.091e-08 
    LPEB = 6.541e-08 
    DVTP0 =      0 
    DVTP1 =      0 
    W0 =  1e-10 
    DVT0 = 0.02411 
    DVT1 = 0.0355 
    DVT2 = -5.083e-05 
    DVT0W =      0 
    DVT1W =      0 
    DVT2W = -0.032 
    DROUT = 0.6772 
    DSUB = 0.1841 
    VTH0 = 0.2637 
    EU = 0.1099 
    UA = 5.008e-15 
    UA1 =  1e-09 
    UB =  1e-26 
    UB1 = -1e-18 
    UC = -1e-10 
    UC1 = -5.6e-11 
    U0 =  180.6 
    UTE =   -1.5 
    VOFF = -0.03494 
    VOFFL =      0 
    MINV =      0 
    FPROUT = 0.000169 
    PDITS =      0 
    PDITSD =      0 
    PDITSL =      0 
    DELTA = 0.001742 
    RDSW =    100 
    RDSWMIN =    100 
    RDWMIN =      0 
    RSWMIN =      0 
    RDW =    100 
    RSW =    100 
    PRWG =      3 
    PRWB = 0.0997 
    PRT =      0 
    ETA0 = 0.002948 
    ETAB = -0.01177 
    PCLM = 0.4021 
    PDIBLC1 = 0.6278 
    PDIBLC2 =   0.01 
    PDIBLCB = -0.001 
    PSCBE1 = 5.553e+08 
    PSCBE2 = 3.093e-06 
    PVAG = 0.04912 
    WR =      1 
    DWG = -2.359e-08 
    DWB = 4.286e-08 
    XW =      0 
    XWREF =      0 
    XL =      0 
    XLREF =      0 
    B0 = 1.249e-06 
    B1 =  1e-07 
    ALPHA0 =      0 
    ALPHA1 =      0 
    AGIDL =      0 
    BGIDL = 2.3e+09 
    CGIDL =    0.5 
    PHIN =      0 
    EGIDL =    0.8 
    AIGC =   0.43 
    BIGC =  0.054 
    CIGC =  0.075 
    AIGSD =   0.43 
    BIGSD =  0.054 
    CIGSD =  0.075 
    AIGBACC =   0.43 
    BIGBACC =  0.054 
    CIGBACC =  0.075 
    AIGBINV =   0.35 
    BIGBINV =   0.03 
    CIGBINV =  0.006 
    NIGC =      1 
    NIGBINV =      3 
    NIGBACC =      1 
    NTOX =      1 
    EIGBINV =    1.1 
    PIGCD =      1 
    POXEDGE =      1 
    XRCRG1 =     12 
    TNOIA =    1.5 
    TNOIB =    3.5 
    NTNOI =      1 
    XRCRG2 =      1 
    BETA0 =     30 
    IJTHDFWD =    0.1 
    IJTHSFWD =    0.1 
    IJTHDREV =    0.1 
    IJTHSREV =    0.1 
    XJBVD =      1 
    XJBVS =      1 
    BVD =     10 
    BVS =     10 
    VFB =     -1 
    GBMIN =  1e-12 
    RBDB =     50 
    RBPB =     50 
    RBSB =     50 
    RBPS =     50 
    RBPD =     50 
    CGSL =      0 
    CGDL =      0 
    CKAPPAS =    0.6 
    CKAPPAD =    0.6 
    CF =      0 
    CLC =  1e-07 
    CLE =    0.6 
    DWC = 4.514e-15 
    DLC = 3.005e-12 
    DLCIG = 3.005e-12 
    DWJ = 4.514e-15 
    VFBCV =     -1 
    ACDE =      1 
    MOIN =     15 
    NOFF =      1 
    VOFFCV =      0 
    DMCG =      0 
    DMCI =      0 
    DMDG =      0 
    DMCGT =      0 
    XGW =      0 
    XGL =      0 
    RSHG =    0.1 
    NGCON =      1 
    TCJ =      0 
    TPB =      0 
    TCJSW =      0 
    TPBSW =      0 
    TCJSWG =      0 
    TPBSWG =      0 
    SK0 =      0 
    SK1 =      0 
    SK2 =      0 
    SL =  2e-06 
    SW =  2e-06 
    K =      0 
    WKETA = 0.03991 
    PVSAT =   1839 
    PKETA = -0.001059 
    TNOM =  300.1 
    CGSO =  1e-10 
    CGDO =  1e-10 
    CGBO =      0 
    XPART =    0.5 
    RSH =    7.2 
    JSS = 0.0001 
    JSWS =      0 
    JSWGS =      0 
    PBS =      1 
    MJS = 0.3003 
    PBSWS =    0.4 
    MJSWS = 0.2357 
    CJS = 0.000893 
    CJSWS = 1.59e-10 
    NJS =      1 
    PBSWGS = 0.4291 
    MJSWGS = 0.1758 
    CJSWGS = 3.065e-11 
    XTIS =      3 
    JSD = 0.0001 
    JSWD =      0 
    JSWGD =      0 
    PBD =      1 
    MJD = 0.3003 
    PBSWD =    0.4 
    MJSWD = 0.2357 
    CJD = 0.000893 
    CJSWD = 1.59e-10 
    NJD =      1 
    PBSWGD = 0.4291 
    MJSWGD = 0.1758 
    CJSWGD = 3.065e-11 
    XTID =      3 
    LMLT =      1 
    WMLT =      1 
    LINT = 3.005e-12 
    LL =      0 
    LLC =      0 
    LLN =      1 
    LW =      0 
    LWC =      0 
    LWN =      1 
    LWL =      0 
    LWLC =      0 
    LMIN =      0 
    LMAX =      1 
    WINT = 4.514e-15 
    WL =      0 
    WLC =      0 
    WLN =      1 
    WW =      0 
    WWC =      0 
    WWN =      1 
    WWL =      0 
    WWLC =      0 
    WMIN =      0 
    WMAX =      1 
    NOIA = 6.25e+41 
    NOIB = 3.125e+26 
    NOIC = 8.75e+09 
    EM = 4.1e+07 
    EF =      1 
    AF =      1 
    KF =      0 
    TRS =      0 
    TRD =      0 
    TEMPMOD  =      0 
    LAMBDA   =      0 
    VTL      =  2e+05 m/s
    LC       =  5e-09 
    XN       =      3 
    LLAMBDA  =      0 
    LVTL     =      0 
    LXN      =      0 
    WLAMBDA  =      0 
    WVTL     =      0 
    WXN      =      0 
    PLAMBDA  =      0 
    PVTL     =      0 
    PXN      =      0 
    RNOIA    =  0.577 
    RNOIB    =   0.37 
    SAREF(SA0) = 5.5e-07 m
    SBREF(SB0) = 5.5e-07 m
    WLOD     =  2e-06 m
    KU0      = -4e-07 1/m
    KVSAT    =   0.01 
    KVTH0    =  1e-09 m
    TKU0     =      0 
    LLODKU0  =  1.087 
    WLODKU0  =  1.099 
    LLODVTH  =      1 
    WLODVTH  =      1 
    LKU0     =  1e-06 
    WKU0     =  1e-06 
    PKU0     =      0 
    LKVTH0   = 1.1e-07 
    WKVTH0   = 1.1e-07 
    PKVTH0   =      0 
    STK2     =      0 
    LODK2    =      1 
    STETA0   =      0 
    LODETA0  =      1 
    LXRCRG1  =      0 
    WXRCRG1  =      0 
    PXRCRG1  =      0 
    LXRCRG2  =      0 
    WXRCRG2  =      0 
    PXRCRG2  =      0 
 Model Name: cmosp  
 BSIM4 Model (Level 54)
    MOBMOD = 2
    BINUNIT = 1
    PARAMCHK = 1
    CAPMOD = 2
    DIOMOD = 1
    RDSMOD = 0
    TRNQSMOD = 0
    ACNQSMOD = 0
    RBODYMOD = 0
    RGATEMOD = 0
    PERMOD = 1
    GEOMOD = 0
    RGEOMOD = 0
    FNOIMOD = 1
    TNOIMOD = 0
    IGCMOD = 0
    IGBMOD = 0
    STIMOD = 1
    VBFWDMOD = 0
    VERSION =    4.3 
    TOXREF =  3e-09 
    TOXE = 2.4e-09 
    TOXP = 2.4e-09 
    TOXM = 2.4e-09 
    DTOX =      0 
    EPSROX =    3.9 
    CDSC = 0.00024 
    CDSCB =      0 
    CDSCD =      0 
    CIT =      0 
    NFACTOR = 0.003481 
    XJ = 1.5e-07 
    VSAT = 8.4e+04 
    A0 =      2 
    AGS =  2.087 
    A1 =      0 
    A2 =      1 
    AT = 3.3e+04 
    KETA =   0.05 
    NSUB =  6e+16 
    NDEP = 1.7e+17 
    NSD =  1e+20 
    NGATE =  1e+20 
    GAMMA1 =      0 
    GAMMA2 =      0 
    VBX =      0 
    VBM =     -3 
    XT = 1.55e-07 
    K1 = 0.5378 
    KT1 =  -0.11 
    KT1L =      0 
    KT2 =  0.022 
    K2 = -0.1001 
    K3 =  87.19 
    K3B =     10 
    LPE0 = 3.625e-08 
    LPEB = -1.473e-08 
    DVTP0 =      0 
    DVTP1 =      0 
    W0 = 1.983e-06 
    DVT0 = 0.009269 
    DVT1 = 0.05083 
    DVT2 = -5.289e-05 
    DVT0W =      0 
    DVT1W =      0 
    DVT2W = -0.032 
    DROUT = 0.9794 
    DSUB =      1 
    VTH0 = -0.1829 
    EU =  1.638 
    UA = 2.065e-15 
    UA1 =  1e-09 
    UB =  1e-23 
    UB1 = -1e-18 
    UC = -1.838e-17 
    UC1 = -5.6e-11 
    U0 =    100 
    UTE =   -1.5 
    VOFF = -0.04221 
    VOFFL =      0 
    MINV =      0 
    FPROUT = 1.439e-05 
    PDITS =      0 
    PDITSD =      0 
    PDITSL =      0 
    DELTA = 0.01356 
    RDSW =  872.6 
    RDSWMIN =    100 
    RDWMIN =      0 
    RSWMIN =      0 
    RDW =    100 
    RSW =    100 
    PRWG = 0.1222 
    PRWB =    0.1 
    PRT =      0 
    ETA0 =  1e-05 
    ETAB =      0 
    PCLM =  0.534 
    PDIBLC1 = 0.5062 
    PDIBLC2 = 0.00473 
    PDIBLCB =      0 
    PSCBE1 = 1.696e+08 
    PSCBE2 =  3e-06 
    PVAG = 0.4223 
    WR =      1 
    DWG = -7.761e-08 
    DWB = 2.989e-08 
    XW =      0 
    XWREF =      0 
    XL =      0 
    XLREF =      0 
    B0 = 1.734e-07 
    B1 =  1e-07 
    ALPHA0 =      0 
    ALPHA1 =      0 
    AGIDL =      0 
    BGIDL = 2.3e+09 
    CGIDL =    0.5 
    PHIN =      0 
    EGIDL =    0.8 
    AIGC =   0.31 
    BIGC =  0.024 
    CIGC =   0.03 
    AIGSD =   0.31 
    BIGSD =  0.024 
    CIGSD =   0.03 
    AIGBACC =   0.43 
    BIGBACC =  0.054 
    CIGBACC =  0.075 
    AIGBINV =   0.35 
    BIGBINV =   0.03 
    CIGBINV =  0.006 
    NIGC =      1 
    NIGBINV =      3 
    NIGBACC =      1 
    NTOX =      1 
    EIGBINV =    1.1 
    PIGCD =      1 
    POXEDGE =      1 
    XRCRG1 =     12 
    TNOIA =    1.5 
    TNOIB =    3.5 
    NTNOI =      1 
    XRCRG2 =      1 
    BETA0 =     30 
    IJTHDFWD =    0.1 
    IJTHSFWD =    0.1 
    IJTHDREV =    0.1 
    IJTHSREV =    0.1 
    XJBVD =      1 
    XJBVS =      1 
    BVD =     10 
    BVS =     10 
    VFB =     -1 
    GBMIN =  1e-12 
    RBDB =     50 
    RBPB =     50 
    RBSB =     50 
    RBPS =     50 
    RBPD =     50 
    CGSL =      0 
    CGDL =      0 
    CKAPPAS =    0.6 
    CKAPPAD =    0.6 
    CF =      0 
    CLC =  1e-07 
    CLE =    0.6 
    DWC = 1.54e-08 
    DLC = 1.382e-10 
    DLCIG = 1.382e-10 
    DWJ = 1.54e-08 
    VFBCV =     -1 
    ACDE =      1 
    MOIN =     15 
    NOFF =      1 
    VOFFCV =      0 
    DMCG =      0 
    DMCI =      0 
    DMDG =      0 
    DMCGT =      0 
    XGW =      0 
    XGL =      0 
    RSHG =    0.1 
    NGCON =      1 
    TCJ =      0 
    TPB =      0 
    TCJSW =      0 
    TPBSW =      0 
    TCJSWG =      0 
    TPBSWG =      0 
    SK0 =      0 
    SK1 =      0 
    SK2 =      0 
    SL =  2e-06 
    SW =  2e-06 
    K =      0 
    WKETA = -0.03641 
    PVSAT =   -100 
    TNOM =  300.1 
    CGSO =  1e-10 
    CGDO =  1e-10 
    CGBO =      0 
    XPART =    0.5 
    RSH =    7.6 
    JSS = 0.0001 
    JSWS =      0 
    JSWGS =      0 
    PBS =      1 
    MJS =  0.475 
    PBSWS =  0.965 
    MJSWS =  0.432 
    CJS = 6.434e-09 
    CJSWS = 1.084e-09 
    NJS =      1 
    PBSWGS = 0.9009 
    MJSWGS = 0.2169 
    CJSWGS = 6.3e-11 
    XTIS =      3 
    JSD = 0.0001 
    JSWD =      0 
    JSWGD =      0 
    PBD =      1 
    MJD =  0.475 
    PBSWD =  0.965 
    MJSWD =  0.432 
    CJD = 6.434e-09 
    CJSWD = 1.084e-09 
    NJD =      1 
    PBSWGD = 0.9009 
    MJSWGD = 0.2169 
    CJSWGD = 6.3e-11 
    XTID =      3 
    LMLT =      1 
    WMLT =      1 
    LINT = 1.382e-10 
    LL =      0 
    LLC =      0 
    LLN =      1 
    LW =      0 
    LWC =      0 
    LWN =      1 
    LWL =      0 
    LWLC =      0 
    LMIN =      0 
    LMAX =      1 
    WINT = 1.54e-08 
    WL =      0 
    WLC =      0 
    WLN =      1 
    WW =      0 
    WWC =      0 
    WWN =      1 
    WWL =      0 
    WWLC =      0 
    WMIN =      0 
    WMAX =      1 
    NOIA = 6.188e+40 
    NOIB = 1.5e+25 
    NOIC = 8.75e+09 
    EM = 4.1e+07 
    EF =      1 
    AF =      1 
    KF =      0 
    TRS =      0 
    TRD =      0 
    TEMPMOD  =      0 
    LAMBDA   =      0 
    VTL      =  2e+05 m/s
    LC       =  5e-09 
    XN       =      3 
    LLAMBDA  =      0 
    LVTL     =      0 
    LXN      =      0 
    WLAMBDA  =      0 
    WVTL     =      0 
    WXN      =      0 
    PLAMBDA  =      0 
    PVTL     =      0 
    PXN      =      0 
    RNOIA    =  0.577 
    RNOIB    =   0.37 
    SAREF(SA0) =  1e-06 m
    SBREF(SB0) =  1e-06 m
    WLOD     =      0 m
    KU0      =      0 1/m
    KVSAT    =      0 
    KVTH0    =      0 m
    TKU0     =      0 
    LLODKU0  =      0 
    WLODKU0  =      0 
    LLODVTH  =      0 
    WLODVTH  =      0 
    LKU0     =      0 
    WKU0     =      0 
    PKU0     =      0 
    LKVTH0   =      0 
    WKVTH0   =      0 
    PKVTH0   =      0 
    STK2     =      0 
    LODK2    =      1 
    STETA0   =      0 
    LODETA0  =      1 
    LXRCRG1  =      0 
    WXRCRG1  =      0 
    PXRCRG1  =      0 
    LXRCRG2  =      0 
    WXRCRG2  =      0 
    PXRCRG2  =      0 
  **info** (threshtest.sp:51) DC voltage reset to initial transient source value              in source        0:vinh                new dc=  0.1000D+01
  **warning** (threshtest.sp:81) Unable to find referenced node p11; Output variable ignored. Specify a valid node.
  

 **warning** the following singular supplies were terminated to 1 meg resistor 
   supply       node1            node2
  vinc                    0:c                defined in subckt 0                     0:0                defined in subckt 0               
      
 **info** set option symb=1 internally to help for convergence.
 *****************************************************************
 ******  option summary
 ******
 runlvl  = 3         bypass  = 2         
  Opening plot unit= 15
 file=threshtest.pa2                                                           

1****** HSPICE -- F-2011.09 32-BIT (Sep  5 2011) linux ******                   
 ******  
 case 2:

  ******  operating point information tnom=  25.000 temp=  25.000 *****
 ***** operating point status is voltage   simulation time is     0.     
    node    =voltage      node    =voltage      node    =voltage

 +0:b       =   1.0000  0:c       =   1.0000  0:p12     =   1.0000 
 +0:p13     = 1.077e-05 0:p9      =   0.      0:vdd     =   1.0000 
 +1:cn1     = 5.386e-06


 maximum nodal capacitance=   2.227E-15         on node     0:p12             

    nodal  capacitance table 

    node    =    cap      node    =    cap      node    =    cap

 +0:b       = 2.269e-16 0:c       =   0.      0:p12     = 2.227e-15
 +0:p13     = 5.721e-16 0:p9      =   0.      0:vdd     = 1.447e-15
 +1:cn1     = 1.283e-16

 
 ******  
 case 2:

  ******  transient analysis tnom=  25.000 temp=  25.000 *****

   *** data name = setsrce  1st sweep ***

   minval=  4.9078E-01    at=  4.4800E-10
               from=  0.0000E+00    to=  1.2000E-09
   maxval=  1.0000E+00    at=  0.0000E+00
               from=  0.0000E+00    to=  1.2000E-09
  **warning** (threshtest.sp:81) "FIND" function event is undefined. Please specify a valid event. Measure failed.
   minthresh= failed
   maxthresh= failed

          ***** job concluded
1****** HSPICE -- F-2011.09 32-BIT (Sep  5 2011) linux ******                   
 ******  
 case 2:

  ******  job statistics summary tnom=  25.000 temp=  25.000 *****
  
  
 ******  Machine Information  ******
 CPU:
 model name	: Intel(R) Xeon(R) CPU           E5520  @ 2.27GHz
 cpu MHz	: 2260.863
  
 OS:
 Linux version 3.16.0-4-amd64 (debian-kernel@lists.debian.org) (gcc version 4.8.
 4 (Debian 4.8.4-1) ) #1 SMP Debian 3.16.7-ckt9-3~deb8u1 (2015-04-24)


  ******  HSPICE Threads Information  ******

  Command Line Threads Count :     1
  Available CPU Count        :    16
  Actual Threads Count       :     1


  ******  Circuit Statistics  ******
  # nodes       =       8 # elements   =      10
  # resistors   =       1 # capacitors =       1 # inductors   =       0
  # mutual_inds =       0 # vccs       =       0 # vcvs        =       0
  # cccs        =       0 # ccvs       =       0 # volt_srcs   =       4
  # curr_srcs   =       0 # diodes     =       0 # bjts        =       0
  # jfets       =       0 # mosfets    =       4 # U elements  =       0
  # T elements  =       0 # W elements =       0 # B elements  =       0
  # S elements  =       0 # P elements =       0 # va device   =       0
  # vector_srcs =       0


  ******  Runtime Statistics (seconds)  ******

  analysis           time    # points   tot. iter  conv.iter
  op point           0.00           1           3
  transient          0.09        2400       10053        4823 rev=         1
  readin             0.03
  errchk             0.00
  setup              0.00
  output             0.00


           peak memory used         87.04 megabytes
           total cpu time            0.12 seconds
           total elapsed time        0.13 seconds
           job started at     17:12:54 08/26/2015
           job ended   at     17:12:56 08/26/2015


1****** HSPICE -- F-2011.09 32-BIT (Sep  5 2011) linux ******                   
 ******  
 case 3:

  ******  circuit name directory
 circuit number to circuit name directory
   number circuitname                     definition         multiplier
        0 main circuit
        1 xnand5.                         nand2inp           1.00 
1****** HSPICE -- F-2011.09 32-BIT (Sep  5 2011) linux ******                   
 ******  
 case 3:

  ******  mos   model parameters tnom=  25.000 temp=  25.000 *****
 Model Name: cmosn  
 BSIM4 Model (Level 54)
    MOBMOD = 2
    BINUNIT = 1
    PARAMCHK = 1
    CAPMOD = 2
    DIOMOD = 1
    RDSMOD = 0
    TRNQSMOD = 0
    ACNQSMOD = 0
    RBODYMOD = 0
    RGATEMOD = 0
    PERMOD = 1
    GEOMOD = 0
    RGEOMOD = 0
    FNOIMOD = 1
    TNOIMOD = 0
    IGCMOD = 0
    IGBMOD = 0
    STIMOD = 2
    VBFWDMOD = 0
    VERSION =    4.3 
    TOXREF =  3e-09 
    TOXE = 2.2e-09 
    TOXP = 2.2e-09 
    TOXM = 2.2e-09 
    DTOX =      0 
    EPSROX =    3.9 
    CDSC = 0.00024 
    CDSCB =      0 
    CDSCD =      0 
    CIT =      0 
    NFACTOR =  1.913 
    XJ = 1.5e-07 
    VSAT = 7.526e+05 
    A0 =      2 
    AGS =      0 
    A1 =      0 
    A2 =      1 
    AT = 3.3e+04 
    KETA =   0.05 
    NSUB =  6e+16 
    NDEP = 1.7e+17 
    NSD =  1e+20 
    NGATE =  1e+20 
    GAMMA1 =      0 
    GAMMA2 =      0 
    VBX =      0 
    VBM =     -3 
    XT = 1.55e-07 
    K1 =  0.546 
    KT1 =  -0.11 
    KT1L =      0 
    KT2 =  0.022 
    K2 = -0.1063 
    K3 = 0.001001 
    K3B =  8.256 
    LPE0 = 8.091e-08 
    LPEB = 6.541e-08 
    DVTP0 =      0 
    DVTP1 =      0 
    W0 =  1e-10 
    DVT0 = 0.02411 
    DVT1 = 0.0355 
    DVT2 = -5.083e-05 
    DVT0W =      0 
    DVT1W =      0 
    DVT2W = -0.032 
    DROUT = 0.6772 
    DSUB = 0.1841 
    VTH0 = 0.2637 
    EU = 0.1099 
    UA = 5.008e-15 
    UA1 =  1e-09 
    UB =  1e-26 
    UB1 = -1e-18 
    UC = -1e-10 
    UC1 = -5.6e-11 
    U0 =  180.6 
    UTE =   -1.5 
    VOFF = -0.03494 
    VOFFL =      0 
    MINV =      0 
    FPROUT = 0.000169 
    PDITS =      0 
    PDITSD =      0 
    PDITSL =      0 
    DELTA = 0.001742 
    RDSW =    100 
    RDSWMIN =    100 
    RDWMIN =      0 
    RSWMIN =      0 
    RDW =    100 
    RSW =    100 
    PRWG =      3 
    PRWB = 0.0997 
    PRT =      0 
    ETA0 = 0.002948 
    ETAB = -0.01177 
    PCLM = 0.4021 
    PDIBLC1 = 0.6278 
    PDIBLC2 =   0.01 
    PDIBLCB = -0.001 
    PSCBE1 = 5.553e+08 
    PSCBE2 = 3.093e-06 
    PVAG = 0.04912 
    WR =      1 
    DWG = -2.359e-08 
    DWB = 4.286e-08 
    XW =      0 
    XWREF =      0 
    XL =      0 
    XLREF =      0 
    B0 = 1.249e-06 
    B1 =  1e-07 
    ALPHA0 =      0 
    ALPHA1 =      0 
    AGIDL =      0 
    BGIDL = 2.3e+09 
    CGIDL =    0.5 
    PHIN =      0 
    EGIDL =    0.8 
    AIGC =   0.43 
    BIGC =  0.054 
    CIGC =  0.075 
    AIGSD =   0.43 
    BIGSD =  0.054 
    CIGSD =  0.075 
    AIGBACC =   0.43 
    BIGBACC =  0.054 
    CIGBACC =  0.075 
    AIGBINV =   0.35 
    BIGBINV =   0.03 
    CIGBINV =  0.006 
    NIGC =      1 
    NIGBINV =      3 
    NIGBACC =      1 
    NTOX =      1 
    EIGBINV =    1.1 
    PIGCD =      1 
    POXEDGE =      1 
    XRCRG1 =     12 
    TNOIA =    1.5 
    TNOIB =    3.5 
    NTNOI =      1 
    XRCRG2 =      1 
    BETA0 =     30 
    IJTHDFWD =    0.1 
    IJTHSFWD =    0.1 
    IJTHDREV =    0.1 
    IJTHSREV =    0.1 
    XJBVD =      1 
    XJBVS =      1 
    BVD =     10 
    BVS =     10 
    VFB =     -1 
    GBMIN =  1e-12 
    RBDB =     50 
    RBPB =     50 
    RBSB =     50 
    RBPS =     50 
    RBPD =     50 
    CGSL =      0 
    CGDL =      0 
    CKAPPAS =    0.6 
    CKAPPAD =    0.6 
    CF =      0 
    CLC =  1e-07 
    CLE =    0.6 
    DWC = 4.514e-15 
    DLC = 3.005e-12 
    DLCIG = 3.005e-12 
    DWJ = 4.514e-15 
    VFBCV =     -1 
    ACDE =      1 
    MOIN =     15 
    NOFF =      1 
    VOFFCV =      0 
    DMCG =      0 
    DMCI =      0 
    DMDG =      0 
    DMCGT =      0 
    XGW =      0 
    XGL =      0 
    RSHG =    0.1 
    NGCON =      1 
    TCJ =      0 
    TPB =      0 
    TCJSW =      0 
    TPBSW =      0 
    TCJSWG =      0 
    TPBSWG =      0 
    SK0 =      0 
    SK1 =      0 
    SK2 =      0 
    SL =  2e-06 
    SW =  2e-06 
    K =      0 
    WKETA = 0.03991 
    PVSAT =   1839 
    PKETA = -0.001059 
    TNOM =  300.1 
    CGSO =  1e-10 
    CGDO =  1e-10 
    CGBO =      0 
    XPART =    0.5 
    RSH =    7.2 
    JSS = 0.0001 
    JSWS =      0 
    JSWGS =      0 
    PBS =      1 
    MJS = 0.3003 
    PBSWS =    0.4 
    MJSWS = 0.2357 
    CJS = 0.000893 
    CJSWS = 1.59e-10 
    NJS =      1 
    PBSWGS = 0.4291 
    MJSWGS = 0.1758 
    CJSWGS = 3.065e-11 
    XTIS =      3 
    JSD = 0.0001 
    JSWD =      0 
    JSWGD =      0 
    PBD =      1 
    MJD = 0.3003 
    PBSWD =    0.4 
    MJSWD = 0.2357 
    CJD = 0.000893 
    CJSWD = 1.59e-10 
    NJD =      1 
    PBSWGD = 0.4291 
    MJSWGD = 0.1758 
    CJSWGD = 3.065e-11 
    XTID =      3 
    LMLT =      1 
    WMLT =      1 
    LINT = 3.005e-12 
    LL =      0 
    LLC =      0 
    LLN =      1 
    LW =      0 
    LWC =      0 
    LWN =      1 
    LWL =      0 
    LWLC =      0 
    LMIN =      0 
    LMAX =      1 
    WINT = 4.514e-15 
    WL =      0 
    WLC =      0 
    WLN =      1 
    WW =      0 
    WWC =      0 
    WWN =      1 
    WWL =      0 
    WWLC =      0 
    WMIN =      0 
    WMAX =      1 
    NOIA = 6.25e+41 
    NOIB = 3.125e+26 
    NOIC = 8.75e+09 
    EM = 4.1e+07 
    EF =      1 
    AF =      1 
    KF =      0 
    TRS =      0 
    TRD =      0 
    TEMPMOD  =      0 
    LAMBDA   =      0 
    VTL      =  2e+05 m/s
    LC       =  5e-09 
    XN       =      3 
    LLAMBDA  =      0 
    LVTL     =      0 
    LXN      =      0 
    WLAMBDA  =      0 
    WVTL     =      0 
    WXN      =      0 
    PLAMBDA  =      0 
    PVTL     =      0 
    PXN      =      0 
    RNOIA    =  0.577 
    RNOIB    =   0.37 
    SAREF(SA0) = 5.5e-07 m
    SBREF(SB0) = 5.5e-07 m
    WLOD     =  2e-06 m
    KU0      = -4e-07 1/m
    KVSAT    =   0.01 
    KVTH0    =  1e-09 m
    TKU0     =      0 
    LLODKU0  =  1.087 
    WLODKU0  =  1.099 
    LLODVTH  =      1 
    WLODVTH  =      1 
    LKU0     =  1e-06 
    WKU0     =  1e-06 
    PKU0     =      0 
    LKVTH0   = 1.1e-07 
    WKVTH0   = 1.1e-07 
    PKVTH0   =      0 
    STK2     =      0 
    LODK2    =      1 
    STETA0   =      0 
    LODETA0  =      1 
    LXRCRG1  =      0 
    WXRCRG1  =      0 
    PXRCRG1  =      0 
    LXRCRG2  =      0 
    WXRCRG2  =      0 
    PXRCRG2  =      0 
 Model Name: cmosp  
 BSIM4 Model (Level 54)
    MOBMOD = 2
    BINUNIT = 1
    PARAMCHK = 1
    CAPMOD = 2
    DIOMOD = 1
    RDSMOD = 0
    TRNQSMOD = 0
    ACNQSMOD = 0
    RBODYMOD = 0
    RGATEMOD = 0
    PERMOD = 1
    GEOMOD = 0
    RGEOMOD = 0
    FNOIMOD = 1
    TNOIMOD = 0
    IGCMOD = 0
    IGBMOD = 0
    STIMOD = 1
    VBFWDMOD = 0
    VERSION =    4.3 
    TOXREF =  3e-09 
    TOXE = 2.4e-09 
    TOXP = 2.4e-09 
    TOXM = 2.4e-09 
    DTOX =      0 
    EPSROX =    3.9 
    CDSC = 0.00024 
    CDSCB =      0 
    CDSCD =      0 
    CIT =      0 
    NFACTOR = 0.003481 
    XJ = 1.5e-07 
    VSAT = 8.4e+04 
    A0 =      2 
    AGS =  2.087 
    A1 =      0 
    A2 =      1 
    AT = 3.3e+04 
    KETA =   0.05 
    NSUB =  6e+16 
    NDEP = 1.7e+17 
    NSD =  1e+20 
    NGATE =  1e+20 
    GAMMA1 =      0 
    GAMMA2 =      0 
    VBX =      0 
    VBM =     -3 
    XT = 1.55e-07 
    K1 = 0.5378 
    KT1 =  -0.11 
    KT1L =      0 
    KT2 =  0.022 
    K2 = -0.1001 
    K3 =  87.19 
    K3B =     10 
    LPE0 = 3.625e-08 
    LPEB = -1.473e-08 
    DVTP0 =      0 
    DVTP1 =      0 
    W0 = 1.983e-06 
    DVT0 = 0.009269 
    DVT1 = 0.05083 
    DVT2 = -5.289e-05 
    DVT0W =      0 
    DVT1W =      0 
    DVT2W = -0.032 
    DROUT = 0.9794 
    DSUB =      1 
    VTH0 = -0.1829 
    EU =  1.638 
    UA = 2.065e-15 
    UA1 =  1e-09 
    UB =  1e-23 
    UB1 = -1e-18 
    UC = -1.838e-17 
    UC1 = -5.6e-11 
    U0 =    100 
    UTE =   -1.5 
    VOFF = -0.04221 
    VOFFL =      0 
    MINV =      0 
    FPROUT = 1.439e-05 
    PDITS =      0 
    PDITSD =      0 
    PDITSL =      0 
    DELTA = 0.01356 
    RDSW =  872.6 
    RDSWMIN =    100 
    RDWMIN =      0 
    RSWMIN =      0 
    RDW =    100 
    RSW =    100 
    PRWG = 0.1222 
    PRWB =    0.1 
    PRT =      0 
    ETA0 =  1e-05 
    ETAB =      0 
    PCLM =  0.534 
    PDIBLC1 = 0.5062 
    PDIBLC2 = 0.00473 
    PDIBLCB =      0 
    PSCBE1 = 1.696e+08 
    PSCBE2 =  3e-06 
    PVAG = 0.4223 
    WR =      1 
    DWG = -7.761e-08 
    DWB = 2.989e-08 
    XW =      0 
    XWREF =      0 
    XL =      0 
    XLREF =      0 
    B0 = 1.734e-07 
    B1 =  1e-07 
    ALPHA0 =      0 
    ALPHA1 =      0 
    AGIDL =      0 
    BGIDL = 2.3e+09 
    CGIDL =    0.5 
    PHIN =      0 
    EGIDL =    0.8 
    AIGC =   0.31 
    BIGC =  0.024 
    CIGC =   0.03 
    AIGSD =   0.31 
    BIGSD =  0.024 
    CIGSD =   0.03 
    AIGBACC =   0.43 
    BIGBACC =  0.054 
    CIGBACC =  0.075 
    AIGBINV =   0.35 
    BIGBINV =   0.03 
    CIGBINV =  0.006 
    NIGC =      1 
    NIGBINV =      3 
    NIGBACC =      1 
    NTOX =      1 
    EIGBINV =    1.1 
    PIGCD =      1 
    POXEDGE =      1 
    XRCRG1 =     12 
    TNOIA =    1.5 
    TNOIB =    3.5 
    NTNOI =      1 
    XRCRG2 =      1 
    BETA0 =     30 
    IJTHDFWD =    0.1 
    IJTHSFWD =    0.1 
    IJTHDREV =    0.1 
    IJTHSREV =    0.1 
    XJBVD =      1 
    XJBVS =      1 
    BVD =     10 
    BVS =     10 
    VFB =     -1 
    GBMIN =  1e-12 
    RBDB =     50 
    RBPB =     50 
    RBSB =     50 
    RBPS =     50 
    RBPD =     50 
    CGSL =      0 
    CGDL =      0 
    CKAPPAS =    0.6 
    CKAPPAD =    0.6 
    CF =      0 
    CLC =  1e-07 
    CLE =    0.6 
    DWC = 1.54e-08 
    DLC = 1.382e-10 
    DLCIG = 1.382e-10 
    DWJ = 1.54e-08 
    VFBCV =     -1 
    ACDE =      1 
    MOIN =     15 
    NOFF =      1 
    VOFFCV =      0 
    DMCG =      0 
    DMCI =      0 
    DMDG =      0 
    DMCGT =      0 
    XGW =      0 
    XGL =      0 
    RSHG =    0.1 
    NGCON =      1 
    TCJ =      0 
    TPB =      0 
    TCJSW =      0 
    TPBSW =      0 
    TCJSWG =      0 
    TPBSWG =      0 
    SK0 =      0 
    SK1 =      0 
    SK2 =      0 
    SL =  2e-06 
    SW =  2e-06 
    K =      0 
    WKETA = -0.03641 
    PVSAT =   -100 
    TNOM =  300.1 
    CGSO =  1e-10 
    CGDO =  1e-10 
    CGBO =      0 
    XPART =    0.5 
    RSH =    7.6 
    JSS = 0.0001 
    JSWS =      0 
    JSWGS =      0 
    PBS =      1 
    MJS =  0.475 
    PBSWS =  0.965 
    MJSWS =  0.432 
    CJS = 6.434e-09 
    CJSWS = 1.084e-09 
    NJS =      1 
    PBSWGS = 0.9009 
    MJSWGS = 0.2169 
    CJSWGS = 6.3e-11 
    XTIS =      3 
    JSD = 0.0001 
    JSWD =      0 
    JSWGD =      0 
    PBD =      1 
    MJD =  0.475 
    PBSWD =  0.965 
    MJSWD =  0.432 
    CJD = 6.434e-09 
    CJSWD = 1.084e-09 
    NJD =      1 
    PBSWGD = 0.9009 
    MJSWGD = 0.2169 
    CJSWGD = 6.3e-11 
    XTID =      3 
    LMLT =      1 
    WMLT =      1 
    LINT = 1.382e-10 
    LL =      0 
    LLC =      0 
    LLN =      1 
    LW =      0 
    LWC =      0 
    LWN =      1 
    LWL =      0 
    LWLC =      0 
    LMIN =      0 
    LMAX =      1 
    WINT = 1.54e-08 
    WL =      0 
    WLC =      0 
    WLN =      1 
    WW =      0 
    WWC =      0 
    WWN =      1 
    WWL =      0 
    WWLC =      0 
    WMIN =      0 
    WMAX =      1 
    NOIA = 6.188e+40 
    NOIB = 1.5e+25 
    NOIC = 8.75e+09 
    EM = 4.1e+07 
    EF =      1 
    AF =      1 
    KF =      0 
    TRS =      0 
    TRD =      0 
    TEMPMOD  =      0 
    LAMBDA   =      0 
    VTL      =  2e+05 m/s
    LC       =  5e-09 
    XN       =      3 
    LLAMBDA  =      0 
    LVTL     =      0 
    LXN      =      0 
    WLAMBDA  =      0 
    WVTL     =      0 
    WXN      =      0 
    PLAMBDA  =      0 
    PVTL     =      0 
    PXN      =      0 
    RNOIA    =  0.577 
    RNOIB    =   0.37 
    SAREF(SA0) =  1e-06 m
    SBREF(SB0) =  1e-06 m
    WLOD     =      0 m
    KU0      =      0 1/m
    KVSAT    =      0 
    KVTH0    =      0 m
    TKU0     =      0 
    LLODKU0  =      0 
    WLODKU0  =      0 
    LLODVTH  =      0 
    WLODVTH  =      0 
    LKU0     =      0 
    WKU0     =      0 
    PKU0     =      0 
    LKVTH0   =      0 
    WKVTH0   =      0 
    PKVTH0   =      0 
    STK2     =      0 
    LODK2    =      1 
    STETA0   =      0 
    LODETA0  =      1 
    LXRCRG1  =      0 
    WXRCRG1  =      0 
    PXRCRG1  =      0 
    LXRCRG2  =      0 
    WXRCRG2  =      0 
    PXRCRG2  =      0 
  **info** (threshtest.sp:51) DC voltage reset to initial transient source value              in source        0:vinh                new dc=  0.1000D+01
  **warning** (threshtest.sp:81) Unable to find referenced node p11; Output variable ignored. Specify a valid node.
  

 **warning** the following singular supplies were terminated to 1 meg resistor 
   supply       node1            node2
  vinc                    0:c                defined in subckt 0                     0:0                defined in subckt 0               
      
 **info** set option symb=1 internally to help for convergence.
 *****************************************************************
 ******  option summary
 ******
 runlvl  = 3         bypass  = 2         
  Opening plot unit= 15
 file=threshtest.pa3                                                           

1****** HSPICE -- F-2011.09 32-BIT (Sep  5 2011) linux ******                   
 ******  
 case 3:

  ******  operating point information tnom=  25.000 temp=  25.000 *****
 ***** operating point status is voltage   simulation time is     0.     
    node    =voltage      node    =voltage      node    =voltage

 +0:b       =   1.0000  0:c       =   1.0000  0:p12     =   1.0000 
 +0:p13     = 1.077e-05 0:p9      =   0.      0:vdd     =   1.0000 
 +1:cn1     = 5.386e-06


 maximum nodal capacitance=   3.227E-15         on node     0:p12             

    nodal  capacitance table 

    node    =    cap      node    =    cap      node    =    cap

 +0:b       = 2.269e-16 0:c       =   0.      0:p12     = 3.227e-15
 +0:p13     = 5.721e-16 0:p9      =   0.      0:vdd     = 1.447e-15
 +1:cn1     = 1.283e-16

 
 ******  
 case 3:

  ******  transient analysis tnom=  25.000 temp=  25.000 *****

   *** data name = setsrce  1st sweep ***

   minval=  4.9078E-01    at=  4.4800E-10
               from=  0.0000E+00    to=  1.2000E-09
   maxval=  1.0000E+00    at=  0.0000E+00
               from=  0.0000E+00    to=  1.2000E-09
  **warning** (threshtest.sp:81) "FIND" function event is undefined. Please specify a valid event. Measure failed.
   minthresh= failed
   maxthresh= failed

          ***** job concluded
1****** HSPICE -- F-2011.09 32-BIT (Sep  5 2011) linux ******                   
 ******  
 case 3:

  ******  job statistics summary tnom=  25.000 temp=  25.000 *****
  
  
 ******  Machine Information  ******
 CPU:
 model name	: Intel(R) Xeon(R) CPU           E5520  @ 2.27GHz
 cpu MHz	: 2260.863
  
 OS:
 Linux version 3.16.0-4-amd64 (debian-kernel@lists.debian.org) (gcc version 4.8.
 4 (Debian 4.8.4-1) ) #1 SMP Debian 3.16.7-ckt9-3~deb8u1 (2015-04-24)


  ******  HSPICE Threads Information  ******

  Command Line Threads Count :     1
  Available CPU Count        :    16
  Actual Threads Count       :     1


  ******  Circuit Statistics  ******
  # nodes       =       8 # elements   =      10
  # resistors   =       1 # capacitors =       1 # inductors   =       0
  # mutual_inds =       0 # vccs       =       0 # vcvs        =       0
  # cccs        =       0 # ccvs       =       0 # volt_srcs   =       4
  # curr_srcs   =       0 # diodes     =       0 # bjts        =       0
  # jfets       =       0 # mosfets    =       4 # U elements  =       0
  # T elements  =       0 # W elements =       0 # B elements  =       0
  # S elements  =       0 # P elements =       0 # va device   =       0
  # vector_srcs =       0


  ******  Runtime Statistics (seconds)  ******

  analysis           time    # points   tot. iter  conv.iter
  op point           0.00           1           3
  transient          0.09        2400       10053        4823 rev=         1
  readin             0.03
  errchk             0.00
  setup              0.00
  output             0.00


           peak memory used         87.04 megabytes
           total cpu time            0.12 seconds
           total elapsed time        0.12 seconds
           job started at     17:12:54 08/26/2015
           job ended   at     17:12:56 08/26/2015


1****** HSPICE -- F-2011.09 32-BIT (Sep  5 2011) linux ******                   
 ******  
 case 4:

  ******  circuit name directory
 circuit number to circuit name directory
   number circuitname                     definition         multiplier
        0 main circuit
        1 xnand5.                         nand2inp           1.00 
1****** HSPICE -- F-2011.09 32-BIT (Sep  5 2011) linux ******                   
 ******  
 case 4:

  ******  mos   model parameters tnom=  25.000 temp=  25.000 *****
 Model Name: cmosn  
 BSIM4 Model (Level 54)
    MOBMOD = 2
    BINUNIT = 1
    PARAMCHK = 1
    CAPMOD = 2
    DIOMOD = 1
    RDSMOD = 0
    TRNQSMOD = 0
    ACNQSMOD = 0
    RBODYMOD = 0
    RGATEMOD = 0
    PERMOD = 1
    GEOMOD = 0
    RGEOMOD = 0
    FNOIMOD = 1
    TNOIMOD = 0
    IGCMOD = 0
    IGBMOD = 0
    STIMOD = 2
    VBFWDMOD = 0
    VERSION =    4.3 
    TOXREF =  3e-09 
    TOXE = 2.2e-09 
    TOXP = 2.2e-09 
    TOXM = 2.2e-09 
    DTOX =      0 
    EPSROX =    3.9 
    CDSC = 0.00024 
    CDSCB =      0 
    CDSCD =      0 
    CIT =      0 
    NFACTOR =  1.913 
    XJ = 1.5e-07 
    VSAT = 7.526e+05 
    A0 =      2 
    AGS =      0 
    A1 =      0 
    A2 =      1 
    AT = 3.3e+04 
    KETA =   0.05 
    NSUB =  6e+16 
    NDEP = 1.7e+17 
    NSD =  1e+20 
    NGATE =  1e+20 
    GAMMA1 =      0 
    GAMMA2 =      0 
    VBX =      0 
    VBM =     -3 
    XT = 1.55e-07 
    K1 =  0.546 
    KT1 =  -0.11 
    KT1L =      0 
    KT2 =  0.022 
    K2 = -0.1063 
    K3 = 0.001001 
    K3B =  8.256 
    LPE0 = 8.091e-08 
    LPEB = 6.541e-08 
    DVTP0 =      0 
    DVTP1 =      0 
    W0 =  1e-10 
    DVT0 = 0.02411 
    DVT1 = 0.0355 
    DVT2 = -5.083e-05 
    DVT0W =      0 
    DVT1W =      0 
    DVT2W = -0.032 
    DROUT = 0.6772 
    DSUB = 0.1841 
    VTH0 = 0.2637 
    EU = 0.1099 
    UA = 5.008e-15 
    UA1 =  1e-09 
    UB =  1e-26 
    UB1 = -1e-18 
    UC = -1e-10 
    UC1 = -5.6e-11 
    U0 =  180.6 
    UTE =   -1.5 
    VOFF = -0.03494 
    VOFFL =      0 
    MINV =      0 
    FPROUT = 0.000169 
    PDITS =      0 
    PDITSD =      0 
    PDITSL =      0 
    DELTA = 0.001742 
    RDSW =    100 
    RDSWMIN =    100 
    RDWMIN =      0 
    RSWMIN =      0 
    RDW =    100 
    RSW =    100 
    PRWG =      3 
    PRWB = 0.0997 
    PRT =      0 
    ETA0 = 0.002948 
    ETAB = -0.01177 
    PCLM = 0.4021 
    PDIBLC1 = 0.6278 
    PDIBLC2 =   0.01 
    PDIBLCB = -0.001 
    PSCBE1 = 5.553e+08 
    PSCBE2 = 3.093e-06 
    PVAG = 0.04912 
    WR =      1 
    DWG = -2.359e-08 
    DWB = 4.286e-08 
    XW =      0 
    XWREF =      0 
    XL =      0 
    XLREF =      0 
    B0 = 1.249e-06 
    B1 =  1e-07 
    ALPHA0 =      0 
    ALPHA1 =      0 
    AGIDL =      0 
    BGIDL = 2.3e+09 
    CGIDL =    0.5 
    PHIN =      0 
    EGIDL =    0.8 
    AIGC =   0.43 
    BIGC =  0.054 
    CIGC =  0.075 
    AIGSD =   0.43 
    BIGSD =  0.054 
    CIGSD =  0.075 
    AIGBACC =   0.43 
    BIGBACC =  0.054 
    CIGBACC =  0.075 
    AIGBINV =   0.35 
    BIGBINV =   0.03 
    CIGBINV =  0.006 
    NIGC =      1 
    NIGBINV =      3 
    NIGBACC =      1 
    NTOX =      1 
    EIGBINV =    1.1 
    PIGCD =      1 
    POXEDGE =      1 
    XRCRG1 =     12 
    TNOIA =    1.5 
    TNOIB =    3.5 
    NTNOI =      1 
    XRCRG2 =      1 
    BETA0 =     30 
    IJTHDFWD =    0.1 
    IJTHSFWD =    0.1 
    IJTHDREV =    0.1 
    IJTHSREV =    0.1 
    XJBVD =      1 
    XJBVS =      1 
    BVD =     10 
    BVS =     10 
    VFB =     -1 
    GBMIN =  1e-12 
    RBDB =     50 
    RBPB =     50 
    RBSB =     50 
    RBPS =     50 
    RBPD =     50 
    CGSL =      0 
    CGDL =      0 
    CKAPPAS =    0.6 
    CKAPPAD =    0.6 
    CF =      0 
    CLC =  1e-07 
    CLE =    0.6 
    DWC = 4.514e-15 
    DLC = 3.005e-12 
    DLCIG = 3.005e-12 
    DWJ = 4.514e-15 
    VFBCV =     -1 
    ACDE =      1 
    MOIN =     15 
    NOFF =      1 
    VOFFCV =      0 
    DMCG =      0 
    DMCI =      0 
    DMDG =      0 
    DMCGT =      0 
    XGW =      0 
    XGL =      0 
    RSHG =    0.1 
    NGCON =      1 
    TCJ =      0 
    TPB =      0 
    TCJSW =      0 
    TPBSW =      0 
    TCJSWG =      0 
    TPBSWG =      0 
    SK0 =      0 
    SK1 =      0 
    SK2 =      0 
    SL =  2e-06 
    SW =  2e-06 
    K =      0 
    WKETA = 0.03991 
    PVSAT =   1839 
    PKETA = -0.001059 
    TNOM =  300.1 
    CGSO =  1e-10 
    CGDO =  1e-10 
    CGBO =      0 
    XPART =    0.5 
    RSH =    7.2 
    JSS = 0.0001 
    JSWS =      0 
    JSWGS =      0 
    PBS =      1 
    MJS = 0.3003 
    PBSWS =    0.4 
    MJSWS = 0.2357 
    CJS = 0.000893 
    CJSWS = 1.59e-10 
    NJS =      1 
    PBSWGS = 0.4291 
    MJSWGS = 0.1758 
    CJSWGS = 3.065e-11 
    XTIS =      3 
    JSD = 0.0001 
    JSWD =      0 
    JSWGD =      0 
    PBD =      1 
    MJD = 0.3003 
    PBSWD =    0.4 
    MJSWD = 0.2357 
    CJD = 0.000893 
    CJSWD = 1.59e-10 
    NJD =      1 
    PBSWGD = 0.4291 
    MJSWGD = 0.1758 
    CJSWGD = 3.065e-11 
    XTID =      3 
    LMLT =      1 
    WMLT =      1 
    LINT = 3.005e-12 
    LL =      0 
    LLC =      0 
    LLN =      1 
    LW =      0 
    LWC =      0 
    LWN =      1 
    LWL =      0 
    LWLC =      0 
    LMIN =      0 
    LMAX =      1 
    WINT = 4.514e-15 
    WL =      0 
    WLC =      0 
    WLN =      1 
    WW =      0 
    WWC =      0 
    WWN =      1 
    WWL =      0 
    WWLC =      0 
    WMIN =      0 
    WMAX =      1 
    NOIA = 6.25e+41 
    NOIB = 3.125e+26 
    NOIC = 8.75e+09 
    EM = 4.1e+07 
    EF =      1 
    AF =      1 
    KF =      0 
    TRS =      0 
    TRD =      0 
    TEMPMOD  =      0 
    LAMBDA   =      0 
    VTL      =  2e+05 m/s
    LC       =  5e-09 
    XN       =      3 
    LLAMBDA  =      0 
    LVTL     =      0 
    LXN      =      0 
    WLAMBDA  =      0 
    WVTL     =      0 
    WXN      =      0 
    PLAMBDA  =      0 
    PVTL     =      0 
    PXN      =      0 
    RNOIA    =  0.577 
    RNOIB    =   0.37 
    SAREF(SA0) = 5.5e-07 m
    SBREF(SB0) = 5.5e-07 m
    WLOD     =  2e-06 m
    KU0      = -4e-07 1/m
    KVSAT    =   0.01 
    KVTH0    =  1e-09 m
    TKU0     =      0 
    LLODKU0  =  1.087 
    WLODKU0  =  1.099 
    LLODVTH  =      1 
    WLODVTH  =      1 
    LKU0     =  1e-06 
    WKU0     =  1e-06 
    PKU0     =      0 
    LKVTH0   = 1.1e-07 
    WKVTH0   = 1.1e-07 
    PKVTH0   =      0 
    STK2     =      0 
    LODK2    =      1 
    STETA0   =      0 
    LODETA0  =      1 
    LXRCRG1  =      0 
    WXRCRG1  =      0 
    PXRCRG1  =      0 
    LXRCRG2  =      0 
    WXRCRG2  =      0 
    PXRCRG2  =      0 
 Model Name: cmosp  
 BSIM4 Model (Level 54)
    MOBMOD = 2
    BINUNIT = 1
    PARAMCHK = 1
    CAPMOD = 2
    DIOMOD = 1
    RDSMOD = 0
    TRNQSMOD = 0
    ACNQSMOD = 0
    RBODYMOD = 0
    RGATEMOD = 0
    PERMOD = 1
    GEOMOD = 0
    RGEOMOD = 0
    FNOIMOD = 1
    TNOIMOD = 0
    IGCMOD = 0
    IGBMOD = 0
    STIMOD = 1
    VBFWDMOD = 0
    VERSION =    4.3 
    TOXREF =  3e-09 
    TOXE = 2.4e-09 
    TOXP = 2.4e-09 
    TOXM = 2.4e-09 
    DTOX =      0 
    EPSROX =    3.9 
    CDSC = 0.00024 
    CDSCB =      0 
    CDSCD =      0 
    CIT =      0 
    NFACTOR = 0.003481 
    XJ = 1.5e-07 
    VSAT = 8.4e+04 
    A0 =      2 
    AGS =  2.087 
    A1 =      0 
    A2 =      1 
    AT = 3.3e+04 
    KETA =   0.05 
    NSUB =  6e+16 
    NDEP = 1.7e+17 
    NSD =  1e+20 
    NGATE =  1e+20 
    GAMMA1 =      0 
    GAMMA2 =      0 
    VBX =      0 
    VBM =     -3 
    XT = 1.55e-07 
    K1 = 0.5378 
    KT1 =  -0.11 
    KT1L =      0 
    KT2 =  0.022 
    K2 = -0.1001 
    K3 =  87.19 
    K3B =     10 
    LPE0 = 3.625e-08 
    LPEB = -1.473e-08 
    DVTP0 =      0 
    DVTP1 =      0 
    W0 = 1.983e-06 
    DVT0 = 0.009269 
    DVT1 = 0.05083 
    DVT2 = -5.289e-05 
    DVT0W =      0 
    DVT1W =      0 
    DVT2W = -0.032 
    DROUT = 0.9794 
    DSUB =      1 
    VTH0 = -0.1829 
    EU =  1.638 
    UA = 2.065e-15 
    UA1 =  1e-09 
    UB =  1e-23 
    UB1 = -1e-18 
    UC = -1.838e-17 
    UC1 = -5.6e-11 
    U0 =    100 
    UTE =   -1.5 
    VOFF = -0.04221 
    VOFFL =      0 
    MINV =      0 
    FPROUT = 1.439e-05 
    PDITS =      0 
    PDITSD =      0 
    PDITSL =      0 
    DELTA = 0.01356 
    RDSW =  872.6 
    RDSWMIN =    100 
    RDWMIN =      0 
    RSWMIN =      0 
    RDW =    100 
    RSW =    100 
    PRWG = 0.1222 
    PRWB =    0.1 
    PRT =      0 
    ETA0 =  1e-05 
    ETAB =      0 
    PCLM =  0.534 
    PDIBLC1 = 0.5062 
    PDIBLC2 = 0.00473 
    PDIBLCB =      0 
    PSCBE1 = 1.696e+08 
    PSCBE2 =  3e-06 
    PVAG = 0.4223 
    WR =      1 
    DWG = -7.761e-08 
    DWB = 2.989e-08 
    XW =      0 
    XWREF =      0 
    XL =      0 
    XLREF =      0 
    B0 = 1.734e-07 
    B1 =  1e-07 
    ALPHA0 =      0 
    ALPHA1 =      0 
    AGIDL =      0 
    BGIDL = 2.3e+09 
    CGIDL =    0.5 
    PHIN =      0 
    EGIDL =    0.8 
    AIGC =   0.31 
    BIGC =  0.024 
    CIGC =   0.03 
    AIGSD =   0.31 
    BIGSD =  0.024 
    CIGSD =   0.03 
    AIGBACC =   0.43 
    BIGBACC =  0.054 
    CIGBACC =  0.075 
    AIGBINV =   0.35 
    BIGBINV =   0.03 
    CIGBINV =  0.006 
    NIGC =      1 
    NIGBINV =      3 
    NIGBACC =      1 
    NTOX =      1 
    EIGBINV =    1.1 
    PIGCD =      1 
    POXEDGE =      1 
    XRCRG1 =     12 
    TNOIA =    1.5 
    TNOIB =    3.5 
    NTNOI =      1 
    XRCRG2 =      1 
    BETA0 =     30 
    IJTHDFWD =    0.1 
    IJTHSFWD =    0.1 
    IJTHDREV =    0.1 
    IJTHSREV =    0.1 
    XJBVD =      1 
    XJBVS =      1 
    BVD =     10 
    BVS =     10 
    VFB =     -1 
    GBMIN =  1e-12 
    RBDB =     50 
    RBPB =     50 
    RBSB =     50 
    RBPS =     50 
    RBPD =     50 
    CGSL =      0 
    CGDL =      0 
    CKAPPAS =    0.6 
    CKAPPAD =    0.6 
    CF =      0 
    CLC =  1e-07 
    CLE =    0.6 
    DWC = 1.54e-08 
    DLC = 1.382e-10 
    DLCIG = 1.382e-10 
    DWJ = 1.54e-08 
    VFBCV =     -1 
    ACDE =      1 
    MOIN =     15 
    NOFF =      1 
    VOFFCV =      0 
    DMCG =      0 
    DMCI =      0 
    DMDG =      0 
    DMCGT =      0 
    XGW =      0 
    XGL =      0 
    RSHG =    0.1 
    NGCON =      1 
    TCJ =      0 
    TPB =      0 
    TCJSW =      0 
    TPBSW =      0 
    TCJSWG =      0 
    TPBSWG =      0 
    SK0 =      0 
    SK1 =      0 
    SK2 =      0 
    SL =  2e-06 
    SW =  2e-06 
    K =      0 
    WKETA = -0.03641 
    PVSAT =   -100 
    TNOM =  300.1 
    CGSO =  1e-10 
    CGDO =  1e-10 
    CGBO =      0 
    XPART =    0.5 
    RSH =    7.6 
    JSS = 0.0001 
    JSWS =      0 
    JSWGS =      0 
    PBS =      1 
    MJS =  0.475 
    PBSWS =  0.965 
    MJSWS =  0.432 
    CJS = 6.434e-09 
    CJSWS = 1.084e-09 
    NJS =      1 
    PBSWGS = 0.9009 
    MJSWGS = 0.2169 
    CJSWGS = 6.3e-11 
    XTIS =      3 
    JSD = 0.0001 
    JSWD =      0 
[...]
 ******  
 case 14:

  ******  operating point information tnom=  25.000 temp=  25.000 *****
 ***** operating point status is voltage   simulation time is     0.     
    node    =voltage      node    =voltage      node    =voltage

 +0:b       =   1.0000  0:c       =   1.0000  0:p12     =   1.0000 
 +0:p13     = 1.077e-05 0:p9      =   0.      0:vdd     =   1.0000 
 +1:cn1     = 5.386e-06


 maximum nodal capacitance=   1.423E-14         on node     0:p12             

    nodal  capacitance table 

    node    =    cap      node    =    cap      node    =    cap

 +0:b       = 2.269e-16 0:c       =   0.      0:p12     = 1.423e-14
 +0:p13     = 5.721e-16 0:p9      =   0.      0:vdd     = 1.447e-15
 +1:cn1     = 1.283e-16

 
 ******  
 case 14:

  ******  transient analysis tnom=  25.000 temp=  25.000 *****

   *** data name = setsrce  1st sweep ***

   minval=  4.9078E-01    at=  4.4800E-10
               from=  0.0000E+00    to=  1.2000E-09
   maxval=  1.0000E+00    at=  0.0000E+00
               from=  0.0000E+00    to=  1.2000E-09
  **warning** (threshtest.sp:81) "FIND" function event is undefined. Please specify a valid event. Measure failed.
   minthresh= failed
   maxthresh= failed

          ***** job concluded
1****** HSPICE -- F-2011.09 32-BIT (Sep  5 2011) linux ******                   
 ******  
 case 14:

  ******  job statistics summary tnom=  25.000 temp=  25.000 *****
  
  
 ******  Machine Information  ******
 CPU:
 model name	: Intel(R) Xeon(R) CPU           E5520  @ 2.27GHz
 cpu MHz	: 2260.863
  
 OS:
 Linux version 3.16.0-4-amd64 (debian-kernel@lists.debian.org) (gcc version 4.8.
 4 (Debian 4.8.4-1) ) #1 SMP Debian 3.16.7-ckt9-3~deb8u1 (2015-04-24)


  ******  HSPICE Threads Information  ******

  Command Line Threads Count :     1
  Available CPU Count        :    16
  Actual Threads Count       :     1


  ******  Circuit Statistics  ******
  # nodes       =       8 # elements   =      10
  # resistors   =       1 # capacitors =       1 # inductors   =       0
  # mutual_inds =       0 # vccs       =       0 # vcvs        =       0
  # cccs        =       0 # ccvs       =       0 # volt_srcs   =       4
  # curr_srcs   =       0 # diodes     =       0 # bjts        =       0
  # jfets       =       0 # mosfets    =       4 # U elements  =       0
  # T elements  =       0 # W elements =       0 # B elements  =       0
  # S elements  =       0 # P elements =       0 # va device   =       0
  # vector_srcs =       0


  ******  Runtime Statistics (seconds)  ******

  analysis           time    # points   tot. iter  conv.iter
  op point           0.00           1           3
  transient          0.09        2400       10056        4823 rev=         1
  readin             0.03
  errchk             0.00
  setup              0.00
  output             0.00


           peak memory used         87.17 megabytes
           total cpu time            0.12 seconds
           total elapsed time        0.12 seconds
           job started at     17:12:54 08/26/2015
           job ended   at     17:12:57 08/26/2015


1****** HSPICE -- F-2011.09 32-BIT (Sep  5 2011) linux ******                   
 ******  
 case 15:

  ******  circuit name directory
 circuit number to circuit name directory
   number circuitname                     definition         multiplier
        0 main circuit
        1 xnand5.                         nand2inp           1.00 
1****** HSPICE -- F-2011.09 32-BIT (Sep  5 2011) linux ******                   
 ******  
 case 15:

  ******  mos   model parameters tnom=  25.000 temp=  25.000 *****
 Model Name: cmosn  
 BSIM4 Model (Level 54)
    MOBMOD = 2
    BINUNIT = 1
    PARAMCHK = 1
    CAPMOD = 2
    DIOMOD = 1
    RDSMOD = 0
    TRNQSMOD = 0
    ACNQSMOD = 0
    RBODYMOD = 0
    RGATEMOD = 0
    PERMOD = 1
    GEOMOD = 0
    RGEOMOD = 0
    FNOIMOD = 1
    TNOIMOD = 0
    IGCMOD = 0
    IGBMOD = 0
    STIMOD = 2
    VBFWDMOD = 0
    VERSION =    4.3 
    TOXREF =  3e-09 
    TOXE = 2.2e-09 
    TOXP = 2.2e-09 
    TOXM = 2.2e-09 
    DTOX =      0 
    EPSROX =    3.9 
    CDSC = 0.00024 
    CDSCB =      0 
    CDSCD =      0 
    CIT =      0 
    NFACTOR =  1.913 
    XJ = 1.5e-07 
    VSAT = 7.526e+05 
    A0 =      2 
    AGS =      0 
    A1 =      0 
    A2 =      1 
    AT = 3.3e+04 
    KETA =   0.05 
    NSUB =  6e+16 
    NDEP = 1.7e+17 
    NSD =  1e+20 
    NGATE =  1e+20 
    GAMMA1 =      0 
    GAMMA2 =      0 
    VBX =      0 
    VBM =     -3 
    XT = 1.55e-07 
    K1 =  0.546 
    KT1 =  -0.11 
    KT1L =      0 
    KT2 =  0.022 
    K2 = -0.1063 
    K3 = 0.001001 
    K3B =  8.256 
    LPE0 = 8.091e-08 
    LPEB = 6.541e-08 
    DVTP0 =      0 
    DVTP1 =      0 
    W0 =  1e-10 
    DVT0 = 0.02411 
    DVT1 = 0.0355 
    DVT2 = -5.083e-05 
    DVT0W =      0 
    DVT1W =      0 
    DVT2W = -0.032 
    DROUT = 0.6772 
    DSUB = 0.1841 
    VTH0 = 0.2637 
    EU = 0.1099 
    UA = 5.008e-15 
    UA1 =  1e-09 
    UB =  1e-26 
    UB1 = -1e-18 
    UC = -1e-10 
    UC1 = -5.6e-11 
    U0 =  180.6 
    UTE =   -1.5 
    VOFF = -0.03494 
    VOFFL =      0 
    MINV =      0 
    FPROUT = 0.000169 
    PDITS =      0 
    PDITSD =      0 
    PDITSL =      0 
    DELTA = 0.001742 
    RDSW =    100 
    RDSWMIN =    100 
    RDWMIN =      0 
    RSWMIN =      0 
    RDW =    100 
    RSW =    100 
    PRWG =      3 
    PRWB = 0.0997 
    PRT =      0 
    ETA0 = 0.002948 
    ETAB = -0.01177 
    PCLM = 0.4021 
    PDIBLC1 = 0.6278 
    PDIBLC2 =   0.01 
    PDIBLCB = -0.001 
    PSCBE1 = 5.553e+08 
    PSCBE2 = 3.093e-06 
    PVAG = 0.04912 
    WR =      1 
    DWG = -2.359e-08 
    DWB = 4.286e-08 
    XW =      0 
    XWREF =      0 
    XL =      0 
    XLREF =      0 
    B0 = 1.249e-06 
    B1 =  1e-07 
    ALPHA0 =      0 
    ALPHA1 =      0 
    AGIDL =      0 
    BGIDL = 2.3e+09 
    CGIDL =    0.5 
    PHIN =      0 
    EGIDL =    0.8 
    AIGC =   0.43 
    BIGC =  0.054 
    CIGC =  0.075 
    AIGSD =   0.43 
    BIGSD =  0.054 
    CIGSD =  0.075 
    AIGBACC =   0.43 
    BIGBACC =  0.054 
    CIGBACC =  0.075 
    AIGBINV =   0.35 
    BIGBINV =   0.03 
    CIGBINV =  0.006 
    NIGC =      1 
    NIGBINV =      3 
    NIGBACC =      1 
    NTOX =      1 
    EIGBINV =    1.1 
    PIGCD =      1 
    POXEDGE =      1 
    XRCRG1 =     12 
    TNOIA =    1.5 
    TNOIB =    3.5 
    NTNOI =      1 
    XRCRG2 =      1 
    BETA0 =     30 
    IJTHDFWD =    0.1 
    IJTHSFWD =    0.1 
    IJTHDREV =    0.1 
    IJTHSREV =    0.1 
    XJBVD =      1 
    XJBVS =      1 
    BVD =     10 
    BVS =     10 
    VFB =     -1 
    GBMIN =  1e-12 
    RBDB =     50 
    RBPB =     50 
    RBSB =     50 
    RBPS =     50 
    RBPD =     50 
    CGSL =      0 
    CGDL =      0 
    CKAPPAS =    0.6 
    CKAPPAD =    0.6 
    CF =      0 
    CLC =  1e-07 
    CLE =    0.6 
    DWC = 4.514e-15 
    DLC = 3.005e-12 
    DLCIG = 3.005e-12 
    DWJ = 4.514e-15 
    VFBCV =     -1 
    ACDE =      1 
    MOIN =     15 
    NOFF =      1 
    VOFFCV =      0 
    DMCG =      0 
    DMCI =      0 
    DMDG =      0 
    DMCGT =      0 
    XGW =      0 
    XGL =      0 
    RSHG =    0.1 
    NGCON =      1 
    TCJ =      0 
    TPB =      0 
    TCJSW =      0 
    TPBSW =      0 
    TCJSWG =      0 
    TPBSWG =      0 
    SK0 =      0 
    SK1 =      0 
    SK2 =      0 
    SL =  2e-06 
    SW =  2e-06 
    K =      0 
    WKETA = 0.03991 
    PVSAT =   1839 
    PKETA = -0.001059 
    TNOM =  300.1 
    CGSO =  1e-10 
    CGDO =  1e-10 
    CGBO =      0 
    XPART =    0.5 
    RSH =    7.2 
    JSS = 0.0001 
    JSWS =      0 
    JSWGS =      0 
    PBS =      1 
    MJS = 0.3003 
    PBSWS =    0.4 
    MJSWS = 0.2357 
    CJS = 0.000893 
    CJSWS = 1.59e-10 
    NJS =      1 
    PBSWGS = 0.4291 
    MJSWGS = 0.1758 
    CJSWGS = 3.065e-11 
    XTIS =      3 
    JSD = 0.0001 
    JSWD =      0 
    JSWGD =      0 
    PBD =      1 
    MJD = 0.3003 
    PBSWD =    0.4 
    MJSWD = 0.2357 
    CJD = 0.000893 
    CJSWD = 1.59e-10 
    NJD =      1 
    PBSWGD = 0.4291 
    MJSWGD = 0.1758 
    CJSWGD = 3.065e-11 
    XTID =      3 
    LMLT =      1 
    WMLT =      1 
    LINT = 3.005e-12 
    LL =      0 
    LLC =      0 
    LLN =      1 
    LW =      0 
    LWC =      0 
    LWN =      1 
    LWL =      0 
    LWLC =      0 
    LMIN =      0 
    LMAX =      1 
    WINT = 4.514e-15 
    WL =      0 
    WLC =      0 
    WLN =      1 
    WW =      0 
    WWC =      0 
    WWN =      1 
    WWL =      0 
    WWLC =      0 
    WMIN =      0 
    WMAX =      1 
    NOIA = 6.25e+41 
    NOIB = 3.125e+26 
    NOIC = 8.75e+09 
    EM = 4.1e+07 
    EF =      1 
    AF =      1 
    KF =      0 
    TRS =      0 
    TRD =      0 
    TEMPMOD  =      0 
    LAMBDA   =      0 
    VTL      =  2e+05 m/s
    LC       =  5e-09 
    XN       =      3 
    LLAMBDA  =      0 
    LVTL     =      0 
    LXN      =      0 
    WLAMBDA  =      0 
    WVTL     =      0 
    WXN      =      0 
    PLAMBDA  =      0 
    PVTL     =      0 
    PXN      =      0 
    RNOIA    =  0.577 
    RNOIB    =   0.37 
    SAREF(SA0) = 5.5e-07 m
    SBREF(SB0) = 5.5e-07 m
    WLOD     =  2e-06 m
    KU0      = -4e-07 1/m
    KVSAT    =   0.01 
    KVTH0    =  1e-09 m
    TKU0     =      0 
    LLODKU0  =  1.087 
    WLODKU0  =  1.099 
    LLODVTH  =      1 
    WLODVTH  =      1 
    LKU0     =  1e-06 
    WKU0     =  1e-06 
    PKU0     =      0 
    LKVTH0   = 1.1e-07 
    WKVTH0   = 1.1e-07 
    PKVTH0   =      0 
    STK2     =      0 
    LODK2    =      1 
    STETA0   =      0 
    LODETA0  =      1 
    LXRCRG1  =      0 
    WXRCRG1  =      0 
    PXRCRG1  =      0 
    LXRCRG2  =      0 
    WXRCRG2  =      0 
    PXRCRG2  =      0 
 Model Name: cmosp  
 BSIM4 Model (Level 54)
    MOBMOD = 2
    BINUNIT = 1
    PARAMCHK = 1
    CAPMOD = 2
    DIOMOD = 1
    RDSMOD = 0
    TRNQSMOD = 0
    ACNQSMOD = 0
    RBODYMOD = 0
    RGATEMOD = 0
    PERMOD = 1
    GEOMOD = 0
    RGEOMOD = 0
    FNOIMOD = 1
    TNOIMOD = 0
    IGCMOD = 0
    IGBMOD = 0
    STIMOD = 1
    VBFWDMOD = 0
    VERSION =    4.3 
    TOXREF =  3e-09 
    TOXE = 2.4e-09 
    TOXP = 2.4e-09 
    TOXM = 2.4e-09 
    DTOX =      0 
    EPSROX =    3.9 
    CDSC = 0.00024 
    CDSCB =      0 
    CDSCD =      0 
    CIT =      0 
    NFACTOR = 0.003481 
    XJ = 1.5e-07 
    VSAT = 8.4e+04 
    A0 =      2 
    AGS =  2.087 
    A1 =      0 
    A2 =      1 
    AT = 3.3e+04 
    KETA =   0.05 
    NSUB =  6e+16 
    NDEP = 1.7e+17 
    NSD =  1e+20 
    NGATE =  1e+20 
    GAMMA1 =      0 
    GAMMA2 =      0 
    VBX =      0 
    VBM =     -3 
    XT = 1.55e-07 
    K1 = 0.5378 
    KT1 =  -0.11 
    KT1L =      0 
    KT2 =  0.022 
    K2 = -0.1001 
    K3 =  87.19 
    K3B =     10 
    LPE0 = 3.625e-08 
    LPEB = -1.473e-08 
    DVTP0 =      0 
    DVTP1 =      0 
    W0 = 1.983e-06 
    DVT0 = 0.009269 
    DVT1 = 0.05083 
    DVT2 = -5.289e-05 
    DVT0W =      0 
    DVT1W =      0 
    DVT2W = -0.032 
    DROUT = 0.9794 
    DSUB =      1 
    VTH0 = -0.1829 
    EU =  1.638 
    UA = 2.065e-15 
    UA1 =  1e-09 
    UB =  1e-23 
    UB1 = -1e-18 
    UC = -1.838e-17 
    UC1 = -5.6e-11 
    U0 =    100 
    UTE =   -1.5 
    VOFF = -0.04221 
    VOFFL =      0 
    MINV =      0 
    FPROUT = 1.439e-05 
    PDITS =      0 
    PDITSD =      0 
    PDITSL =      0 
    DELTA = 0.01356 
    RDSW =  872.6 
    RDSWMIN =    100 
    RDWMIN =      0 
    RSWMIN =      0 
    RDW =    100 
    RSW =    100 
    PRWG = 0.1222 
    PRWB =    0.1 
    PRT =      0 
    ETA0 =  1e-05 
    ETAB =      0 
    PCLM =  0.534 
    PDIBLC1 = 0.5062 
    PDIBLC2 = 0.00473 
    PDIBLCB =      0 
    PSCBE1 = 1.696e+08 
    PSCBE2 =  3e-06 
    PVAG = 0.4223 
    WR =      1 
    DWG = -7.761e-08 
    DWB = 2.989e-08 
    XW =      0 
    XWREF =      0 
    XL =      0 
    XLREF =      0 
    B0 = 1.734e-07 
    B1 =  1e-07 
    ALPHA0 =      0 
    ALPHA1 =      0 
    AGIDL =      0 
    BGIDL = 2.3e+09 
    CGIDL =    0.5 
    PHIN =      0 
    EGIDL =    0.8 
    AIGC =   0.31 
    BIGC =  0.024 
    CIGC =   0.03 
    AIGSD =   0.31 
    BIGSD =  0.024 
    CIGSD =   0.03 
    AIGBACC =   0.43 
    BIGBACC =  0.054 
    CIGBACC =  0.075 
    AIGBINV =   0.35 
    BIGBINV =   0.03 
    CIGBINV =  0.006 
    NIGC =      1 
    NIGBINV =      3 
    NIGBACC =      1 
    NTOX =      1 
    EIGBINV =    1.1 
    PIGCD =      1 
    POXEDGE =      1 
    XRCRG1 =     12 
    TNOIA =    1.5 
    TNOIB =    3.5 
    NTNOI =      1 
    XRCRG2 =      1 
    BETA0 =     30 
    IJTHDFWD =    0.1 
    IJTHSFWD =    0.1 
    IJTHDREV =    0.1 
    IJTHSREV =    0.1 
    XJBVD =      1 
    XJBVS =      1 
    BVD =     10 
    BVS =     10 
    VFB =     -1 
    GBMIN =  1e-12 
    RBDB =     50 
    RBPB =     50 
    RBSB =     50 
    RBPS =     50 
    RBPD =     50 
    CGSL =      0 
    CGDL =      0 
    CKAPPAS =    0.6 
    CKAPPAD =    0.6 
    CF =      0 
    CLC =  1e-07 
    CLE =    0.6 
    DWC = 1.54e-08 
    DLC = 1.382e-10 
    DLCIG = 1.382e-10 
    DWJ = 1.54e-08 
    VFBCV =     -1 
    ACDE =      1 
    MOIN =     15 
    NOFF =      1 
    VOFFCV =      0 
    DMCG =      0 
    DMCI =      0 
    DMDG =      0 
    DMCGT =      0 
    XGW =      0 
    XGL =      0 
    RSHG =    0.1 
    NGCON =      1 
    TCJ =      0 
    TPB =      0 
    TCJSW =      0 
    TPBSW =      0 
    TCJSWG =      0 
    TPBSWG =      0 
    SK0 =      0 
    SK1 =      0 
    SK2 =      0 
    SL =  2e-06 
    SW =  2e-06 
    K =      0 
    WKETA = -0.03641 
    PVSAT =   -100 
    TNOM =  300.1 
    CGSO =  1e-10 
    CGDO =  1e-10 
    CGBO =      0 
    XPART =    0.5 
    RSH =    7.6 
    JSS = 0.0001 
    JSWS =      0 
    JSWGS =      0 
    PBS =      1 
    MJS =  0.475 
    PBSWS =  0.965 
    MJSWS =  0.432 
    CJS = 6.434e-09 
    CJSWS = 1.084e-09 
    NJS =      1 
    PBSWGS = 0.9009 
    MJSWGS = 0.2169 
    CJSWGS = 6.3e-11 
    XTIS =      3 
    JSD = 0.0001 
    JSWD =      0 
    JSWGD =      0 
    PBD =      1 
    MJD =  0.475 
    PBSWD =  0.965 
    MJSWD =  0.432 
    CJD = 6.434e-09 
    CJSWD = 1.084e-09 
    NJD =      1 
    PBSWGD = 0.9009 
    MJSWGD = 0.2169 
    CJSWGD = 6.3e-11 
    XTID =      3 
    LMLT =      1 
    WMLT =      1 
    LINT = 1.382e-10 
    LL =      0 
    LLC =      0 
    LLN =      1 
    LW =      0 
    LWC =      0 
    LWN =      1 
    LWL =      0 
    LWLC =      0 
    LMIN =      0 
    LMAX =      1 
    WINT = 1.54e-08 
    WL =      0 
    WLC =      0 
    WLN =      1 
    WW =      0 
    WWC =      0 
    WWN =      1 
    WWL =      0 
    WWLC =      0 
    WMIN =      0 
    WMAX =      1 
    NOIA = 6.188e+40 
    NOIB = 1.5e+25 
    NOIC = 8.75e+09 
    EM = 4.1e+07 
    EF =      1 
    AF =      1 
    KF =      0 
    TRS =      0 
    TRD =      0 
    TEMPMOD  =      0 
    LAMBDA   =      0 
    VTL      =  2e+05 m/s
    LC       =  5e-09 
    XN       =      3 
    LLAMBDA  =      0 
    LVTL     =      0 
    LXN      =      0 
    WLAMBDA  =      0 
    WVTL     =      0 
    WXN      =      0 
    PLAMBDA  =      0 
    PVTL     =      0 
    PXN      =      0 
    RNOIA    =  0.577 
    RNOIB    =   0.37 
    SAREF(SA0) =  1e-06 m
    SBREF(SB0) =  1e-06 m
    WLOD     =      0 m
    KU0      =      0 1/m
    KVSAT    =      0 
    KVTH0    =      0 m
    TKU0     =      0 
    LLODKU0  =      0 
    WLODKU0  =      0 
    LLODVTH  =      0 
    WLODVTH  =      0 
    LKU0     =      0 
    WKU0     =      0 
    PKU0     =      0 
    LKVTH0   =      0 
    WKVTH0   =      0 
    PKVTH0   =      0 
    STK2     =      0 
    LODK2    =      1 
    STETA0   =      0 
    LODETA0  =      1 
    LXRCRG1  =      0 
    WXRCRG1  =      0 
    PXRCRG1  =      0 
    LXRCRG2  =      0 
    WXRCRG2  =      0 
    PXRCRG2  =      0 
  **info** (threshtest.sp:51) DC voltage reset to initial transient source value              in source        0:vinh                new dc=  0.1000D+01
  **warning** (threshtest.sp:81) Unable to find referenced node p11; Output variable ignored. Specify a valid node.
  

 **warning** the following singular supplies were terminated to 1 meg resistor 
   supply       node1            node2
  vinc                    0:c                defined in subckt 0                     0:0                defined in subckt 0               
      
 **info** set option symb=1 internally to help for convergence.
 *****************************************************************
 ******  option summary
 ******
 runlvl  = 3         bypass  = 2         
  Opening plot unit= 15
 file=threshtest.pa15                                                          

1****** HSPICE -- F-2011.09 32-BIT (Sep  5 2011) linux ******                   
 ******  
 case 15:

  ******  operating point information tnom=  25.000 temp=  25.000 *****
 ***** operating point status is voltage   simulation time is     0.     
    node    =voltage      node    =voltage      node    =voltage

 +0:b       =   1.0000  0:c       =   1.0000  0:p12     =   1.0000 
 +0:p13     = 1.077e-05 0:p9      =   0.      0:vdd     =   1.0000 
 +1:cn1     = 5.386e-06


 maximum nodal capacitance=   1.523E-14         on node     0:p12             

    nodal  capacitance table 

    node    =    cap      node    =    cap      node    =    cap

 +0:b       = 2.269e-16 0:c       =   0.      0:p12     = 1.523e-14
 +0:p13     = 5.721e-16 0:p9      =   0.      0:vdd     = 1.447e-15
 +1:cn1     = 1.283e-16

 
 ******  
 case 15:

  ******  transient analysis tnom=  25.000 temp=  25.000 *****

   *** data name = setsrce  1st sweep ***

   minval=  4.9078E-01    at=  4.4800E-10
               from=  0.0000E+00    to=  1.2000E-09
   maxval=  1.0000E+00    at=  0.0000E+00
               from=  0.0000E+00    to=  1.2000E-09
  **warning** (threshtest.sp:81) "FIND" function event is undefined. Please specify a valid event. Measure failed.
   minthresh= failed
   maxthresh= failed

          ***** job concluded
1****** HSPICE -- F-2011.09 32-BIT (Sep  5 2011) linux ******                   
 ******  
 case 15:

  ******  job statistics summary tnom=  25.000 temp=  25.000 *****
  
  
 ******  Machine Information  ******
 CPU:
 model name	: Intel(R) Xeon(R) CPU           E5520  @ 2.27GHz
 cpu MHz	: 2260.863
  
 OS:
 Linux version 3.16.0-4-amd64 (debian-kernel@lists.debian.org) (gcc version 4.8.
 4 (Debian 4.8.4-1) ) #1 SMP Debian 3.16.7-ckt9-3~deb8u1 (2015-04-24)


  ******  HSPICE Threads Information  ******

  Command Line Threads Count :     1
  Available CPU Count        :    16
  Actual Threads Count       :     1


  ******  Circuit Statistics  ******
  # nodes       =       8 # elements   =      10
  # resistors   =       1 # capacitors =       1 # inductors   =       0
  # mutual_inds =       0 # vccs       =       0 # vcvs        =       0
  # cccs        =       0 # ccvs       =       0 # volt_srcs   =       4
  # curr_srcs   =       0 # diodes     =       0 # bjts        =       0
  # jfets       =       0 # mosfets    =       4 # U elements  =       0
  # T elements  =       0 # W elements =       0 # B elements  =       0
  # S elements  =       0 # P elements =       0 # va device   =       0
  # vector_srcs =       0


  ******  Runtime Statistics (seconds)  ******

  analysis           time    # points   tot. iter  conv.iter
  op point           0.00           1           3
  transient          0.09        2400       10056        4823 rev=         1
  readin             0.03
  errchk             0.00
  setup              0.00
  output             0.00


           peak memory used         87.17 megabytes
           total cpu time            0.12 seconds
           total elapsed time        0.12 seconds
           job started at     17:12:54 08/26/2015
           job ended   at     17:12:57 08/26/2015


 lic: Release hspice token(s) 
