$DATA1 SOURCE='HSPICE' VERSION='F-2011.09 32-BIT'
.TITLE '$ calculate delay of gate'
 minval           maxval           minthresh        maxthresh         
 temper           alter#            
 -7.639e-03          1.0255           0.6786           0.5912         
   25.0000        1                 
  1.641e-02          1.0171           0.6205           0.5960         
   25.0000        2                 
    0.1481           1.0138           0.5589           0.5957         
   25.0000        3                 
    0.3375           1.0117           0.5476           0.5956         
   25.0000        4                 
    0.4705           1.0102           0.5345           0.6012         
   25.0000        5                 
    0.5616           1.0090           0.5253           0.6012         
   25.0000        6                 
    0.6263           1.0081           0.5263           0.6011         
   25.0000        7                 
    0.6744           1.0073           0.5217           0.6010         
   25.0000        8                 
    0.7115           1.0067           0.5222           0.6010         
   25.0000        9                 
    0.7411           1.0061           0.5173           0.6010         
   25.0000        10                
    0.7651           1.0057           0.5177           0.6009         
   25.0000        11                
    0.7851           1.0053           0.5180           0.6009         
   25.0000        12                
    0.8019           1.0050           0.5129           0.6009         
   25.0000        13                
    0.8163           1.0047           0.5131           0.6009         
   25.0000        14                
    0.8287           1.0044           0.5133           0.6008         
   25.0000        15                
    0.8396           1.0041           0.5135           0.6008         
   25.0000        16                
