Using: /usr/bin/time -p /synopsys/HSPICE/hspice/linux/hspice norapprox.sp
 ****** HSPICE -- F-2011.09 32-BIT (Sep  5 2011) linux ******                   
  Copyright (C) 2011 Synopsys, Inc. All Rights Reserved.                        
  Unpublished-rights reserved under US copyright laws.
  This program is protected by law and is subject to the
  terms and conditions of the license agreement from Synopsys.
  Use of this program is your acceptance to be bound by the
  license agreement. HSPICE is the trademark of Synopsys, Inc.
  Input File: norapprox.sp                                                      
  Command line options: norapprox.sp
 lic: No 'setenv LM_LICENSE_FILE' in current environment' 
 lic:  
 lic: FLEXlm: v10.8 
 lic: USER:   watkins              HOSTNAME: engr-e132-d10 
 lic: HOSTID: 002564bd04da         PID:      10750 
 lic: Using FLEXlm license file: 
 lic: 28000@131.230.191.194 
 lic: Checkout 1 hspice 
 lic: License/Maintenance for hspice will expire on 30-dec-2015/2015.06 
 lic: 1(in_use)/50(total) FLOATING license(s) on SERVER 131.230.191.194 
 lic:   
 Init: read install configuration file: /synopsys/HSPICE/hspice/meta.cfg
1****** HSPICE -- F-2011.09 32-BIT (Sep  5 2011) linux ******                   
 ******  
 

  ******  circuit name directory
 circuit number to circuit name directory
   number circuitname                     definition         multiplier
        0 main circuit
        1 xnor1.                          nor2inp            1.00 
        2 xnor2.                          nor2inp            1.00 
        3 xnor8.                          nor2inp            1.00 
        4 xnor9.                          nor2inp            1.00 
1****** HSPICE -- F-2011.09 32-BIT (Sep  5 2011) linux ******                   
 ******  
 

  ******  mos   model parameters tnom=  25.000 temp=  25.000 *****
 Model Name: cmosn  
 BSIM4 Model (Level 54)
    MOBMOD = 2
    BINUNIT = 1
    PARAMCHK = 1
    CAPMOD = 2
    DIOMOD = 1
    RDSMOD = 0
    TRNQSMOD = 0
    ACNQSMOD = 0
    RBODYMOD = 0
    RGATEMOD = 0
    PERMOD = 1
    GEOMOD = 0
    RGEOMOD = 0
    FNOIMOD = 1
    TNOIMOD = 0
    IGCMOD = 0
    IGBMOD = 0
    STIMOD = 1
    VBFWDMOD = 0
    VERSION =    4.3 
    TOXREF =  3e-09 
    TOXE = 2.6e-09 
    TOXP = 2.6e-09 
    TOXM = 2.6e-09 
    DTOX =      0 
    EPSROX =    3.9 
    CDSC = 0.00024 
    CDSCB =      0 
    CDSCD =      0 
    CIT =      0 
    NFACTOR =  1.475 
    XJ = 1.5e-07 
    VSAT = 6.639e+04 
    A0 =      2 
    AGS = 0.00791 
    A1 =      0 
    A2 =      1 
    AT = 3.3e+04 
    KETA = -0.05342 
    NSUB =  6e+16 
    NDEP = 1.7e+17 
    NSD =  1e+20 
    NGATE =  3e+20 
    GAMMA1 =      0 
    GAMMA2 =      0 
    VBX =      0 
    VBM =     -3 
    XT = 1.55e-07 
    K1 = 0.5257 
    KT1 =  -0.11 
    KT1L =      0 
    KT2 =  0.022 
    K2 = -0.07588 
    K3 =  36.32 
    K3B =  4.814 
    LPE0 = 6.27e-08 
    LPEB = -1.6e-09 
    DVTP0 =      0 
    DVTP1 =      0 
    W0 = 3.795e-07 
    DVT0 = 0.02396 
    DVT1 = 0.06928 
    DVT2 = -4.934e-05 
    DVT0W =      0 
    DVT1W =      0 
    DVT2W = -0.032 
    DROUT =  0.518 
    DSUB = 0.1711 
    VTH0 = 0.4781 
    EU =      0 
    UA =  1e-11 
    UA1 =  1e-09 
    UB = 3.627e-18 
    UB1 = -1e-18 
    UC = -7.217e-12 
    UC1 = -5.6e-11 
    U0 =  239.8 
    UTE =   -1.5 
    VOFF = -0.1263 
    VOFFL =      0 
    MINV =      0 
    FPROUT = 1.132e-05 
    PDITS =      0 
    PDITSD =      0 
    PDITSL =      0 
    DELTA = 0.01229 
    RDSW =  244.7 
    RDSWMIN =    100 
    RDWMIN =      0 
    RSWMIN =      0 
    RDW =    100 
    RSW =    100 
    PRWG = 0.9953 
    PRWB = 0.005432 
    PRT =      0 
    ETA0 = 0.00987 
    ETAB = -0.001757 
    PCLM = 0.4956 
    PDIBLC1 = 0.001338 
    PDIBLC2 = 0.00967 
    PDIBLCB = -0.001 
    PSCBE1 = 7.99e+08 
    PSCBE2 = 3.002e-06 
    PVAG =      0 
    WR =      1 
    DWG = -1.557e-08 
    DWB = -3.819e-09 
    XW =      0 
    XWREF =      0 
    XL =      0 
    XLREF =      0 
    B0 = -1.514e-07 
    B1 = 7.886e-08 
    ALPHA0 =      0 
    ALPHA1 =      0 
    AGIDL =      0 
    BGIDL = 2.3e+09 
    CGIDL =    0.5 
    PHIN =      0 
    EGIDL =    0.8 
    AIGC =   0.43 
    BIGC =  0.054 
    CIGC =  0.075 
    AIGSD =   0.43 
    BIGSD =  0.054 
    CIGSD =  0.075 
    AIGBACC =   0.43 
    BIGBACC =  0.054 
    CIGBACC =  0.075 
    AIGBINV =   0.35 
    BIGBINV =   0.03 
    CIGBINV =  0.006 
    NIGC =      1 
    NIGBINV =      3 
    NIGBACC =      1 
    NTOX =      1 
    EIGBINV =    1.1 
    PIGCD =      1 
    POXEDGE =      1 
    XRCRG1 =     12 
    TNOIA =    1.5 
    TNOIB =    3.5 
    NTNOI =      1 
    XRCRG2 =      1 
    BETA0 =     30 
    IJTHDFWD =    0.1 
    IJTHSFWD =    0.1 
    IJTHDREV =    0.1 
    IJTHSREV =    0.1 
    XJBVD =      1 
    XJBVS =      1 
    BVD =     10 
    BVS =     10 
    VFB =     -1 
    GBMIN =  1e-12 
    RBDB =     50 
    RBPB =     50 
    RBSB =     50 
    RBPS =     50 
    RBPD =     50 
    CGSL =      0 
    CGDL =      0 
    CKAPPAS =    0.6 
    CKAPPAD =    0.6 
    CF =      0 
    CLC =  1e-07 
    CLE =    0.6 
    DWC = 9.426e-14 
    DLC = 3.321e-14 
    DLCIG = 3.321e-14 
    DWJ = 9.426e-14 
    VFBCV =     -1 
    ACDE =      1 
    MOIN =     15 
    NOFF =      1 
    VOFFCV =      0 
    DMCG =      0 
    DMCI =      0 
    DMDG =      0 
    DMCGT =      0 
    XGW =      0 
    XGL =      0 
    RSHG =    0.1 
    NGCON =      1 
    TCJ =      0 
    TPB =      0 
    TCJSW =      0 
    TPBSW =      0 
    TCJSWG =      0 
    TPBSWG =      0 
    SK0 =      0 
    SK1 =      0 
    SK2 =      0 
    SL =  2e-06 
    SW =  2e-06 
    K =      0 
    LKETA = 0.01531 
    WKETA = 0.01061 
    PVSAT =   -196 
    PKETA = 0.00126 
    PK2 =  1e-05 
    PVTH0 = 0.0001 
    PUA =  1e-22 
    PUB = 9.998e-24 
    PU0 = -0.005 
    PRDSW =  3.872 
    PETA0 = 2.539e-05 
    TNOM =  300.1 
    CGSO =  1e-10 
    CGDO =  1e-10 
    CGBO =  1e-12 
    XPART =    0.5 
    RSH =   12.2 
    JSS = 0.0001 
    JSWS =      0 
    JSWGS =      0 
    PBS =      1 
    MJS =    0.9 
    PBSWS =      1 
    MJSWS =   0.55 
    CJS = 0.0001 
    CJSWS =  1e-10 
    NJS =      1 
    PBSWGS =      1 
    MJSWGS =   0.33 
    CJSWGS =  5e-10 
    XTIS =      3 
    JSD = 0.0001 
    JSWD =      0 
    JSWGD =      0 
    PBD =      1 
    MJD =    0.9 
    PBSWD =      1 
    MJSWD =   0.55 
    CJD = 0.0001 
    CJSWD =  1e-10 
    NJD =      1 
    PBSWGD =      1 
    MJSWGD =   0.33 
    CJSWGD =  5e-10 
    XTID =      3 
    LMLT =      1 
    WMLT =      1 
    LINT = 3.321e-14 
    LL =      0 
    LLC =      0 
    LLN =      1 
    LW =      0 
    LWC =      0 
    LWN =      1 
    LWL =      0 
    LWLC =      0 
    LMIN =      0 
    LMAX =      1 
    WINT = 9.426e-14 
    WL =      0 
    WLC =      0 
    WLN =      1 
    WW =      0 
    WWC =      0 
    WWN =      1 
    WWL =      0 
    WWLC =      0 
    WMIN =      0 
    WMAX =      1 
    NOIA = 6.25e+41 
    NOIB = 3.125e+26 
    NOIC = 8.75e+09 
    EM = 4.1e+07 
    EF =      1 
    AF =      1 
    KF =      0 
    TRS =      0 
    TRD =      0 
    TEMPMOD  =      0 
    LAMBDA   =      0 
    VTL      =  2e+05 m/s
    LC       =  5e-09 
    XN       =      3 
    LLAMBDA  =      0 
    LVTL     =      0 
    LXN      =      0 
    WLAMBDA  =      0 
    WVTL     =      0 
    WXN      =      0 
    PLAMBDA  =      0 
    PVTL     =      0 
    PXN      =      0 
    RNOIA    =  0.577 
    RNOIB    =   0.37 
    SAREF(SA0) =  1e-06 m
    SBREF(SB0) =  1e-06 m
    WLOD     =      0 m
    KU0      =      0 1/m
    KVSAT    =      0 
    KVTH0    =      0 m
    TKU0     =      0 
    LLODKU0  =      0 
    WLODKU0  =      0 
    LLODVTH  =      0 
    WLODVTH  =      0 
    LKU0     =      0 
    WKU0     =      0 
    PKU0     =      0 
    LKVTH0   =      0 
    WKVTH0   =      0 
    PKVTH0   =      0 
    STK2     =      0 
    LODK2    =      1 
    STETA0   =      0 
    LODETA0  =      1 
    LXRCRG1  =      0 
    WXRCRG1  =      0 
    PXRCRG1  =      0 
    LXRCRG2  =      0 
    WXRCRG2  =      0 
    PXRCRG2  =      0 
 Model Name: cmosp  
 BSIM4 Model (Level 54)
    MOBMOD = 2
    BINUNIT = 1
    PARAMCHK = 1
    CAPMOD = 2
    DIOMOD = 1
    RDSMOD = 0
    TRNQSMOD = 0
    ACNQSMOD = 0
    RBODYMOD = 0
    RGATEMOD = 0
    PERMOD = 1
    GEOMOD = 0
    RGEOMOD = 0
    FNOIMOD = 1
    TNOIMOD = 0
    IGCMOD = 0
    IGBMOD = 0
    STIMOD = 1
    VBFWDMOD = 0
    VERSION =    4.3 
    TOXREF =  3e-09 
    TOXE = 2.6e-09 
    TOXP = 2.6e-09 
    TOXM = 2.6e-09 
    DTOX =      0 
    EPSROX =    3.9 
    CDSC = 0.00024 
    CDSCB =      0 
    CDSCD =      0 
    CIT =      0 
    NFACTOR =      0 
    XJ = 1.5e-07 
    VSAT = 3.73e+04 
    A0 =      2 
    AGS =  1.009 
    A1 =      0 
    A2 =      1 
    AT = 3.3e+04 
    KETA =   0.05 
    NSUB =  6e+16 
    NDEP = 1.7e+17 
    NSD =  1e+20 
    NGATE =  1e+20 
    GAMMA1 =      0 
    GAMMA2 =      0 
    VBX =      0 
    VBM =     -3 
    XT = 1.55e-07 
    K1 = 0.9928 
    KT1 =  -0.11 
    KT1L =      0 
    KT2 =  0.022 
    K2 = -0.3381 
    K3 = 0.001001 
    K3B =     10 
    LPE0 = 2.609e-08 
    LPEB = -1.076e-08 
    DVTP0 =      0 
    DVTP1 =      0 
    W0 = 4.771e-05 
    DVT0 = 0.01395 
    DVT1 = 0.0664 
    DVT2 = -0.004296 
    DVT0W =      0 
    DVT1W =      0 
    DVT2W = -0.032 
    DROUT = 0.8684 
    DSUB = 0.1863 
    VTH0 = -0.2315 
    EU = 0.8596 
    UA = 1.391e-09 
    UA1 =  1e-09 
    UB = 1.039e-23 
    UB1 = -1e-18 
    UC = 2.79e-11 
    UC1 = -5.6e-11 
    U0 =     70 
    UTE =   -1.5 
    VOFF = -0.001909 
    VOFFL =      0 
    MINV =      0 
    FPROUT = 7.988e-06 
    PDITS =      0 
    PDITSD =      0 
    PDITSL =      0 
    DELTA = 0.004624 
    RDSW =   1125 
    RDSWMIN =    100 
    RDWMIN =      0 
    RSWMIN =      0 
    RDW =    100 
    RSW =    100 
    PRWG =    0.1 
    PRWB =    0.1 
    PRT =      0 
    ETA0 = 0.00256 
    ETAB =      0 
    PCLM =  1.006 
    PDIBLC1 = 0.2995 
    PDIBLC2 =   0.01 
    PDIBLCB =      0 
    PSCBE1 =  8e+08 
    PSCBE2 = 3.027e-06 
    PVAG = 0.04381 
    WR =      1 
    DWG = -1.561e-10 
    DWB = -1.169e-08 
    XW =      0 
    XWREF =      0 
    XL =      0 
    XLREF =      0 
    B0 =      0 
    B1 = 1.072e-10 
    ALPHA0 =      0 
    ALPHA1 =      0 
    AGIDL =      0 
    BGIDL = 2.3e+09 
    CGIDL =    0.5 
    PHIN =      0 
    EGIDL =    0.8 
    AIGC =   0.31 
    BIGC =  0.024 
    CIGC =   0.03 
    AIGSD =   0.31 
    BIGSD =  0.024 
    CIGSD =   0.03 
    AIGBACC =   0.43 
    BIGBACC =  0.054 
    CIGBACC =  0.075 
    AIGBINV =   0.35 
    BIGBINV =   0.03 
    CIGBINV =  0.006 
    NIGC =      1 
    NIGBINV =      3 
    NIGBACC =      1 
    NTOX =      1 
    EIGBINV =    1.1 
    PIGCD =      1 
    POXEDGE =      1 
    XRCRG1 =     12 
    TNOIA =    1.5 
    TNOIB =    3.5 
    NTNOI =      1 
    XRCRG2 =      1 
    BETA0 =     30 
    IJTHDFWD =    0.1 
    IJTHSFWD =    0.1 
    IJTHDREV =    0.1 
    IJTHSREV =    0.1 
    XJBVD =      1 
    XJBVS =      1 
    BVD =     10 
    BVS =     10 
    VFB =     -1 
    GBMIN =  1e-12 
    RBDB =     50 
    RBPB =     50 
    RBSB =     50 
    RBPS =     50 
    RBPD =     50 
    CGSL =      0 
    CGDL =      0 
    CKAPPAS =    0.6 
    CKAPPAD =    0.6 
    CF =      0 
    CLC =  1e-07 
    CLE =    0.6 
    DWC =      0 
    DLC =      0 
    DLCIG =      0 
    DWJ =      0 
    VFBCV =     -1 
    ACDE =      1 
    MOIN =     15 
    NOFF =      1 
    VOFFCV =      0 
    DMCG =      0 
    DMCI =      0 
    DMDG =      0 
    DMCGT =      0 
    XGW =      0 
    XGL =      0 
    RSHG =    0.1 
    NGCON =      1 
    TCJ =      0 
    TPB =      0 
    TCJSW =      0 
    TPBSW =      0 
    TCJSWG =      0 
    TPBSWG =      0 
    SK0 =      0 
    SK1 =      0 
    SK2 =      0 
    SL =  2e-06 
    SW =  2e-06 
    K =      0 
    LKETA = 0.03755 
    WKETA =   -0.1 
    PVSAT =  354.9 
    PKETA = 0.003168 
    PK2 = -0.0002836 
    PVTH0 = -2.202e-05 
    PUA = 9.42e-22 
    PUB = 7.851e-22 
    PU0 = 0.2492 
    PRDSW =  0.044 
    TNOM =  300.1 
    CGSO =  1e-10 
    CGDO =  1e-10 
    CGBO =  1e-12 
    XPART =    0.5 
    RSH =   11.3 
    JSS = 0.0001 
    JSWS =      0 
    JSWGS =      0 
    PBS =      1 
    MJS =    0.1 
    PBSWS =      1 
    MJSWS =    0.5 
    CJS = 0.00014 
    CJSWS =  1e-10 
    NJS =      1 
    PBSWGS =      1 
    MJSWGS =   0.33 
    CJSWGS =  5e-10 
    XTIS =      3 
    JSD = 0.0001 
    JSWD =      0 
    JSWGD =      0 
    PBD =      1 
    MJD =    0.1 
    PBSWD =      1 
    MJSWD =    0.5 
    CJD = 0.00014 
    CJSWD =  1e-10 
    NJD =      1 
    PBSWGD =      1 
    MJSWGD =   0.33 
    CJSWGD =  5e-10 
    XTID =      3 
    LMLT =      1 
    WMLT =      1 
    LINT =      0 
    LL =      0 
    LLC =      0 
    LLN =      1 
    LW =      0 
    LWC =      0 
    LWN =      1 
    LWL =      0 
    LWLC =      0 
    LMIN =      0 
    LMAX =      1 
    WINT =      0 
    WL =      0 
    WLC =      0 
    WLN =      1 
    WW =      0 
    WWC =      0 
    WWN =      1 
    WWL =      0 
    WWLC =      0 
    WMIN =      0 
    WMAX =      1 
    NOIA = 6.188e+40 
    NOIB = 1.5e+25 
    NOIC = 8.75e+09 
    EM = 4.1e+07 
    EF =      1 
    AF =      1 
    KF =      0 
    TRS =      0 
    TRD =      0 
    TEMPMOD  =      0 
    LAMBDA   =      0 
    VTL      =  2e+05 m/s
    LC       =  5e-09 
    XN       =      3 
    LLAMBDA  =      0 
    LVTL     =      0 
    LXN      =      0 
    WLAMBDA  =      0 
    WVTL     =      0 
    WXN      =      0 
    PLAMBDA  =      0 
    PVTL     =      0 
    PXN      =      0 
    RNOIA    =  0.577 
    RNOIB    =   0.37 
    SAREF(SA0) =  1e-06 m
    SBREF(SB0) =  1e-06 m
    WLOD     =      0 m
    KU0      =      0 1/m
    KVSAT    =      0 
    KVTH0    =      0 m
    TKU0     =      0 
    LLODKU0  =      0 
    WLODKU0  =      0 
    LLODVTH  =      0 
    WLODVTH  =      0 
    LKU0     =      0 
    WKU0     =      0 
    PKU0     =      0 
    LKVTH0   =      0 
    WKVTH0   =      0 
    PKVTH0   =      0 
    STK2     =      0 
    LODK2    =      1 
    STETA0   =      0 
    LODETA0  =      1 
    LXRCRG1  =      0 
    WXRCRG1  =      0 
    PXRCRG1  =      0 
    LXRCRG2  =      0 
    WXRCRG2  =      0 
    PXRCRG2  =      0 
  **info** (norapprox.sp:22) DC voltage reset to initial transient source value              in source        0:iup                 new dc=  0.0000D+00
  
      
 **info** set option symb=1 internally to help for convergence.
 *****************************************************************
 ******  option summary
 ******
 runlvl  = 3         bypass  = 2         
  Opening plot unit= 15
 file=norapprox.pa0                                                            

1****** HSPICE -- F-2011.09 32-BIT (Sep  5 2011) linux ******                   
 ******  
 

  ******  operating point information tnom=  25.000 temp=  25.000 *****
 ***** operating point status is voltage   simulation time is     0.     
    node    =voltage      node    =voltage      node    =voltage

 +0:a       =   1.0500  0:b       =   0.      0:c       =   1.0500 
 +0:cn1     =   0.9645  0:p10     = 1.098e-06 0:p11     =   1.0500 
 +0:p12     =   1.0500  0:p13     = 9.142e-08 0:p9      = 1.098e-06
 +0:vdd     =   1.0500  1:cp1     = 5.412e-02 2:cp1     =   1.0500 
 +3:cp1     = 5.412e-02 4:cp1     =   1.0500 


 maximum nodal capacitance=   3.945E-15         on node     0:vdd             

    nodal  capacitance table 

    node    =    cap      node    =    cap      node    =    cap

 +0:a       = 2.026e-16 0:b       = 7.611e-16 0:c       = 2.026e-16
 +0:cn1     = 3.277e-16 0:p10     = 5.904e-16 0:p11     = 6.097e-16
 +0:p12     = 6.094e-16 0:p13     = 3.834e-16 0:p9      = 5.904e-16
 +0:vdd     = 3.945e-15 1:cp1     = 2.733e-16 2:cp1     = 4.186e-16
 +3:cp1     = 2.733e-16 4:cp1     = 4.186e-16

 
 ******  
 

  ******  transient analysis tnom=  25.000 temp=  25.000 *****

   *** data name = setsrce  1st sweep ***

x

        time    voltage    
                    cn1    
    0.            0.9645   
  5.0000e-13      0.9645   
  1.0000e-12      0.9645   
  1.5000e-12      0.9645   
  2.0000e-12      0.9645   
  2.5000e-12      0.9645   
  3.0000e-12      0.9645   
  3.5000e-12      0.9645   
  4.0000e-12      0.9645   
  4.5000e-12      0.9645   
  5.0000e-12      0.9645   
  5.5000e-12      0.9645   
  6.0000e-12      0.9645   
  6.5000e-12      0.9645   
  7.0000e-12      0.9645   
  7.5000e-12      0.9645   
  8.0000e-12      0.9645   
  8.5000e-12      0.9645   
  9.0000e-12      0.9645   
  9.5000e-12      0.9645   
  1.0000e-11      0.9645   
  1.0500e-11      0.9645   
  1.1000e-11      0.9645   
  1.1500e-11      0.9645   
  1.2000e-11      0.9645   
  1.2500e-11      0.9645   
  1.3000e-11      0.9645   
  1.3500e-11      0.9645   
  1.4000e-11      0.9645   
  1.4500e-11      0.9645   
  1.5000e-11      0.9645   
  1.5500e-11      0.9645   
  1.6000e-11      0.9645   
  1.6500e-11      0.9645   
  1.7000e-11      0.9645   
  1.7500e-11      0.9645   
  1.8000e-11      0.9645   
  1.8500e-11      0.9645   
  1.9000e-11      0.9645   
  1.9500e-11      0.9645   
  2.0000e-11      0.9645   
  2.0500e-11      0.9645   
  2.1000e-11      0.9645   
  2.1500e-11      0.9645   
  2.2000e-11      0.9645   
  2.2500e-11      0.9645   
  2.3000e-11      0.9645   
  2.3500e-11      0.9645   
  2.4000e-11      0.9645   
  2.4500e-11      0.9645   
  2.5000e-11      0.9645   
  2.5500e-11      0.9645   
  2.6000e-11      0.9645   
  2.6500e-11      0.9645   
  2.7000e-11      0.9645   
  2.7500e-11      0.9645   
  2.8000e-11      0.9645   
  2.8500e-11      0.9645   
  2.9000e-11      0.9645   
  2.9500e-11      0.9645   
  3.0000e-11      0.9645   
  3.0500e-11      0.9645   
  3.1000e-11      0.9645   
  3.1500e-11      0.9645   
  3.2000e-11      0.9645   
  3.2500e-11      0.9645   
  3.3000e-11      0.9645   
  3.3500e-11      0.9645   
  3.4000e-11      0.9645   
  3.4500e-11      0.9645   
  3.5000e-11      0.9645   
  3.5500e-11      0.9645   
  3.6000e-11      0.9645   
  3.6500e-11      0.9645   
  3.7000e-11      0.9645   
  3.7500e-11      0.9645   
  3.8000e-11      0.9645   
  3.8500e-11      0.9645   
  3.9000e-11      0.9645   
  3.9500e-11      0.9645   
  4.0000e-11      0.9645   
  4.0500e-11      0.9645   
  4.1000e-11      0.9645   
  4.1500e-11      0.9645   
  4.2000e-11      0.9645   
  4.2500e-11      0.9645   
  4.3000e-11      0.9645   
  4.3500e-11      0.9645   
  4.4000e-11      0.9645   
  4.4500e-11      0.9645   
  4.5000e-11      0.9645   
  4.5500e-11      0.9645   
  4.6000e-11      0.9645   
  4.6500e-11      0.9645   
  4.7000e-11      0.9645   
  4.7500e-11      0.9645   
  4.8000e-11      0.9645   
  4.8500e-11      0.9645   
  4.9000e-11      0.9645   
  4.9500e-11      0.9645   
  5.0000e-11      0.9645   
  5.0500e-11      0.9645   
  5.1000e-11      0.9645   
  5.1500e-11      0.9645   
  5.2000e-11      0.9645   
  5.2500e-11      0.9645   
  5.3000e-11      0.9645   
  5.3500e-11      0.9645   
  5.4000e-11      0.9645   
  5.4500e-11      0.9645   
  5.5000e-11      0.9645   
  5.5500e-11      0.9645   
  5.6000e-11      0.9645   
  5.6500e-11      0.9645   
  5.7000e-11      0.9645   
  5.7500e-11      0.9645   
  5.8000e-11      0.9645   
  5.8500e-11      0.9645   
  5.9000e-11      0.9645   
  5.9500e-11      0.9645   
  6.0000e-11      0.9645   
  6.0500e-11      0.9645   
  6.1000e-11      0.9645   
  6.1500e-11      0.9645   
  6.2000e-11      0.9645   
  6.2500e-11      0.9645   
  6.3000e-11      0.9645   
  6.3500e-11      0.9645   
  6.4000e-11      0.9645   
  6.4500e-11      0.9645   
  6.5000e-11      0.9645   
  6.5500e-11      0.9645   
  6.6000e-11      0.9645   
  6.6500e-11      0.9645   
  6.7000e-11      0.9645   
  6.7500e-11      0.9645   
  6.8000e-11      0.9645   
  6.8500e-11      0.9645   
  6.9000e-11      0.9645   
  6.9500e-11      0.9645   
  7.0000e-11      0.9645   
  7.0500e-11      0.9645   
  7.1000e-11      0.9645   
  7.1500e-11      0.9645   
  7.2000e-11      0.9645   
  7.2500e-11      0.9645   
  7.3000e-11      0.9645   
  7.3500e-11      0.9645   
  7.4000e-11      0.9645   
  7.4500e-11      0.9645   
  7.5000e-11      0.9645   
  7.5500e-11      0.9645   
  7.6000e-11      0.9645   
  7.6500e-11      0.9645   
  7.7000e-11      0.9645   
  7.7500e-11      0.9645   
  7.8000e-11      0.9645   
  7.8500e-11      0.9645   
  7.9000e-11      0.9645   
  7.9500e-11      0.9645   
  8.0000e-11      0.9645   
  8.0500e-11      0.9645   
  8.1000e-11      0.9645   
  8.1500e-11      0.9645   
  8.2000e-11      0.9645   
  8.2500e-11      0.9645   
  8.3000e-11      0.9645   
  8.3500e-11      0.9645   
  8.4000e-11      0.9645   
  8.4500e-11      0.9645   
  8.5000e-11      0.9645   
  8.5500e-11      0.9645   
  8.6000e-11      0.9645   
  8.6500e-11      0.9645   
  8.7000e-11      0.9645   
  8.7500e-11      0.9645   
  8.8000e-11      0.9645   
  8.8500e-11      0.9645   
  8.9000e-11      0.9645   
  8.9500e-11      0.9645   
  9.0000e-11      0.9645   
  9.0500e-11      0.9645   
  9.1000e-11      0.9645   
  9.1500e-11      0.9645   
  9.2000e-11      0.9645   
  9.2500e-11      0.9645   
  9.3000e-11      0.9645   
  9.3500e-11      0.9645   
  9.4000e-11      0.9645   
  9.4500e-11      0.9645   
  9.5000e-11      0.9645   
  9.5500e-11      0.9645   
  9.6000e-11      0.9645   
  9.6500e-11      0.9645   
  9.7000e-11      0.9645   
  9.7500e-11      0.9645   
  9.8000e-11      0.9645   
  9.8500e-11      0.9645   
  9.9000e-11      0.9645   
  9.9500e-11      0.9645   
  1.0000e-10      0.9645   
  1.0050e-10      0.9645   
  1.0100e-10      0.9645   
  1.0150e-10      0.9645   
  1.0200e-10      0.9645   
  1.0250e-10      0.9645   
  1.0300e-10      0.9645   
  1.0350e-10      0.9645   
  1.0400e-10      0.9645   
  1.0450e-10      0.9645   
  1.0500e-10      0.9645   
  1.0550e-10      0.9645   
  1.0600e-10      0.9645   
  1.0650e-10      0.9645   
  1.0700e-10      0.9645   
  1.0750e-10      0.9645   
  1.0800e-10      0.9645   
  1.0850e-10      0.9645   
  1.0900e-10      0.9645   
  1.0950e-10      0.9645   
  1.1000e-10      0.9645   
  1.1050e-10      0.9645   
  1.1100e-10      0.9645   
  1.1150e-10      0.9645   
  1.1200e-10      0.9645   
  1.1250e-10      0.9645   
  1.1300e-10      0.9645   
  1.1350e-10      0.9645   
  1.1400e-10      0.9645   
  1.1450e-10      0.9645   
  1.1500e-10      0.9645   
  1.1550e-10      0.9645   
  1.1600e-10      0.9645   
  1.1650e-10      0.9645   
  1.1700e-10      0.9645   
  1.1750e-10      0.9645   
  1.1800e-10      0.9645   
  1.1850e-10      0.9645   
  1.1900e-10      0.9645   
  1.1950e-10      0.9645   
  1.2000e-10      0.9645   
  1.2050e-10      0.9645   
  1.2100e-10      0.9645   
  1.2150e-10      0.9645   
  1.2200e-10      0.9645   
  1.2250e-10      0.9645   
  1.2300e-10      0.9645   
  1.2350e-10      0.9645   
  1.2400e-10      0.9645   
  1.2450e-10      0.9645   
  1.2500e-10      0.9645   
  1.2550e-10      0.9645   
  1.2600e-10      0.9645   
  1.2650e-10      0.9645   
  1.2700e-10      0.9645   
  1.2750e-10      0.9645   
  1.2800e-10      0.9645   
  1.2850e-10      0.9645   
  1.2900e-10      0.9645   
  1.2950e-10      0.9645   
  1.3000e-10      0.9645   
  1.3050e-10      0.9645   
  1.3100e-10      0.9645   
  1.3150e-10      0.9645   
  1.3200e-10      0.9645   
  1.3250e-10      0.9645   
  1.3300e-10      0.9645   
  1.3350e-10      0.9645   
  1.3400e-10      0.9645   
  1.3450e-10      0.9645   
  1.3500e-10      0.9645   
  1.3550e-10      0.9645   
  1.3600e-10      0.9645   
  1.3650e-10      0.9645   
  1.3700e-10      0.9645   
  1.3750e-10      0.9645   
  1.3800e-10      0.9645   
  1.3850e-10      0.9645   
  1.3900e-10      0.9645   
  1.3950e-10      0.9645   
  1.4000e-10      0.9645   
  1.4050e-10      0.9645   
  1.4100e-10      0.9645   
  1.4150e-10      0.9645   
  1.4200e-10      0.9645   
  1.4250e-10      0.9645   
  1.4300e-10      0.9645   
  1.4350e-10      0.9645   
  1.4400e-10      0.9645   
  1.4450e-10      0.9645   
  1.4500e-10      0.9645   
  1.4550e-10      0.9645   
  1.4600e-10      0.9645   
  1.4650e-10      0.9645   
  1.4700e-10      0.9645   
  1.4750e-10      0.9645   
  1.4800e-10      0.9645   
  1.4850e-10      0.9645   
  1.4900e-10      0.9645   
  1.4950e-10      0.9645   
  1.5000e-10      0.9645   
  1.5050e-10      0.9645   
  1.5100e-10      0.9645   
  1.5150e-10      0.9645   
  1.5200e-10      0.9645   
  1.5250e-10      0.9645   
  1.5300e-10      0.9645   
  1.5350e-10      0.9645   
  1.5400e-10      0.9645   
  1.5450e-10      0.9645   
  1.5500e-10      0.9645   
  1.5550e-10      0.9645   
  1.5600e-10      0.9645   
  1.5650e-10      0.9645   
  1.5700e-10      0.9645   
  1.5750e-10      0.9645   
  1.5800e-10      0.9645   
  1.5850e-10      0.9645   
  1.5900e-10      0.9645   
  1.5950e-10      0.9645   
  1.6000e-10      0.9645   
  1.6050e-10      0.9645   
  1.6100e-10      0.9645   
  1.6150e-10      0.9645   
  1.6200e-10      0.9645   
  1.6250e-10      0.9645   
  1.6300e-10      0.9645   
  1.6350e-10      0.9645   
  1.6400e-10      0.9645   
  1.6450e-10      0.9645   
  1.6500e-10      0.9645   
  1.6550e-10      0.9645   
  1.6600e-10      0.9645   
  1.6650e-10      0.9645   
  1.6700e-10      0.9645   
  1.6750e-10      0.9645   
  1.6800e-10      0.9645   
  1.6850e-10      0.9645   
  1.6900e-10      0.9645   
  1.6950e-10      0.9645   
  1.7000e-10      0.9645   
  1.7050e-10      0.9645   
  1.7100e-10      0.9645   
  1.7150e-10      0.9645   
  1.7200e-10      0.9645   
  1.7250e-10      0.9645   
  1.7300e-10      0.9645   
  1.7350e-10      0.9645   
  1.7400e-10      0.9645   
  1.7450e-10      0.9645   
  1.7500e-10      0.9645   
  1.7550e-10      0.9645   
  1.7600e-10      0.9645   
  1.7650e-10      0.9645   
  1.7700e-10      0.9645   
  1.7750e-10      0.9645   
  1.7800e-10      0.9645   
  1.7850e-10      0.9645   
  1.7900e-10      0.9645   
  1.7950e-10      0.9645   
  1.8000e-10      0.9645   
  1.8050e-10      0.9645   
  1.8100e-10      0.9645   
  1.8150e-10      0.9645   
  1.8200e-10      0.9645   
  1.8250e-10      0.9645   
  1.8300e-10      0.9645   
  1.8350e-10      0.9645   
  1.8400e-10      0.9645   
  1.8450e-10      0.9645   
  1.8500e-10      0.9645   
  1.8550e-10      0.9645   
  1.8600e-10      0.9645   
  1.8650e-10      0.9645   
  1.8700e-10      0.9645   
  1.8750e-10      0.9645   
  1.8800e-10      0.9645   
  1.8850e-10      0.9645   
  1.8900e-10      0.9645   
  1.8950e-10      0.9645   
  1.9000e-10      0.9645   
  1.9050e-10      0.9645   
  1.9100e-10      0.9645   
  1.9150e-10      0.9645   
  1.9200e-10      0.9645   
  1.9250e-10      0.9645   
  1.9300e-10      0.9645   
  1.9350e-10      0.9645   
  1.9400e-10      0.9645   
  1.9450e-10      0.9645   
  1.9500e-10      0.9645   
  1.9550e-10      0.9645   
  1.9600e-10      0.9645   
  1.9650e-10      0.9645   
  1.9700e-10      0.9645   
  1.9750e-10      0.9645   
  1.9800e-10      0.9645   
  1.9850e-10      0.9645   
  1.9900e-10      0.9645   
  1.9950e-10      0.9645   
  2.0000e-10      0.9645   
  2.0050e-10      0.9645   
  2.0100e-10      0.9645   
  2.0150e-10      0.9645   
  2.0200e-10      0.9645   
  2.0250e-10      0.9645   
  2.0300e-10      0.9645   
  2.0350e-10      0.9645   
  2.0400e-10      0.9645   
  2.0450e-10      0.9645   
  2.0500e-10      0.9645   
  2.0550e-10      0.9645   
  2.0600e-10      0.9645   
  2.0650e-10      0.9645   
  2.0700e-10      0.9645   
  2.0750e-10      0.9645   
  2.0800e-10      0.9645   
  2.0850e-10      0.9645   
  2.0900e-10      0.9645   
  2.0950e-10      0.9645   
  2.1000e-10      0.9645   
  2.1050e-10      0.9645   
  2.1100e-10      0.9645   
  2.1150e-10      0.9645   
  2.1200e-10      0.9645   
  2.1250e-10      0.9645   
  2.1300e-10      0.9645   
  2.1350e-10      0.9645   
  2.1400e-10      0.9645   
  2.1450e-10      0.9645   
  2.1500e-10      0.9645   
  2.1550e-10      0.9645   
  2.1600e-10      0.9645   
  2.1650e-10      0.9645   
  2.1700e-10      0.9645   
  2.1750e-10      0.9645   
  2.1800e-10      0.9645   
  2.1850e-10      0.9645   
  2.1900e-10      0.9645   
  2.1950e-10      0.9645   
  2.2000e-10      0.9645   
  2.2050e-10      0.9645   
  2.2100e-10      0.9645   
  2.2150e-10      0.9645   
  2.2200e-10      0.9645   
  2.2250e-10      0.9645   
  2.2300e-10      0.9645   
  2.2350e-10      0.9645   
  2.2400e-10      0.9645   
  2.2450e-10      0.9645   
  2.2500e-10      0.9645   
  2.2550e-10      0.9645   
  2.2600e-10      0.9645   
  2.2650e-10      0.9645   
  2.2700e-10      0.9645   
  2.2750e-10      0.9645   
  2.2800e-10      0.9645   
  2.2850e-10      0.9645   
  2.2900e-10      0.9645   
  2.2950e-10      0.9645   
  2.3000e-10      0.9645   
  2.3050e-10      0.9645   
  2.3100e-10      0.9645   
  2.3150e-10      0.9645   
  2.3200e-10      0.9645   
  2.3250e-10      0.9645   
  2.3300e-10      0.9645   
  2.3350e-10      0.9645   
  2.3400e-10      0.9645   
  2.3450e-10      0.9645   
  2.3500e-10      0.9645   
  2.3550e-10      0.9645   
  2.3600e-10      0.9645   
  2.3650e-10      0.9645   
  2.3700e-10      0.9645   
  2.3750e-10      0.9645   
  2.3800e-10      0.9645   
  2.3850e-10      0.9645   
  2.3900e-10      0.9645   
  2.3950e-10      0.9645   
  2.4000e-10      0.9645   
  2.4050e-10      0.9645   
  2.4100e-10      0.9645   
  2.4150e-10      0.9645   
  2.4200e-10      0.9645   
  2.4250e-10      0.9645   
  2.4300e-10      0.9645   
  2.4350e-10      0.9645   
  2.4400e-10      0.9645   
  2.4450e-10      0.9645   
  2.4500e-10      0.9645   
  2.4550e-10      0.9645   
  2.4600e-10      0.9645   
  2.4650e-10      0.9645   
  2.4700e-10      0.9645   
  2.4750e-10      0.9645   
  2.4800e-10      0.9645   
  2.4850e-10      0.9645   
  2.4900e-10      0.9645   
  2.4950e-10      0.9645   
  2.5050e-10      0.9645   
  2.5100e-10      0.9646   
  2.5150e-10      0.9647   
  2.5200e-10      0.9648   
  2.5250e-10      0.9649   
  2.5300e-10      0.9650   
  2.5350e-10      0.9651   
  2.5400e-10      0.9653   
  2.5450e-10      0.9654   
  2.5500e-10      0.9655   
  2.5550e-10      0.9657   
  2.5600e-10      0.9658   
  2.5650e-10      0.9659   
  2.5700e-10      0.9660   
  2.5750e-10      0.9662   
  2.5800e-10      0.9663   
  2.5850e-10      0.9664   
  2.5900e-10      0.9665   
  2.5950e-10      0.9666   
  2.6000e-10      0.9668   
  2.6050e-10      0.9669   
  2.6100e-10      0.9670   
  2.6150e-10      0.9671   
  2.6200e-10      0.9672   
  2.6250e-10      0.9673   
  2.6300e-10      0.9674   
  2.6350e-10      0.9675   
  2.6400e-10      0.9676   
  2.6450e-10      0.9677   
  2.6500e-10      0.9678   
  2.6550e-10      0.9679   
  2.6600e-10      0.9680   
  2.6650e-10      0.9681   
  2.6700e-10      0.9682   
  2.6750e-10      0.9683   
  2.6800e-10      0.9684   
  2.6850e-10      0.9686   
  2.6900e-10      0.9687   
  2.6950e-10      0.9688   
  2.7000e-10      0.9689   
  2.7050e-10      0.9690   
  2.7100e-10      0.9691   
  2.7150e-10      0.9692   
  2.7200e-10      0.9693   
  2.7250e-10      0.9694   
  2.7300e-10      0.9696   
  2.7350e-10      0.9697   
  2.7400e-10      0.9698   
  2.7450e-10      0.9699   
  2.7500e-10      0.9700   
  2.7550e-10      0.9702   
  2.7600e-10      0.9703   
  2.7650e-10      0.9704   
  2.7700e-10      0.9705   
  2.7750e-10      0.9706   
  2.7800e-10      0.9707   
  2.7850e-10      0.9708   
  2.7900e-10      0.9709   
  2.7950e-10      0.9710   
  2.8000e-10      0.9710   
  2.8050e-10      0.9710   
  2.8100e-10      0.9711   
  2.8150e-10      0.9712   
  2.8200e-10      0.9713   
  2.8250e-10      0.9713   
  2.8300e-10      0.9714   
  2.8350e-10      0.9715   
  2.8400e-10      0.9715   
  2.8450e-10      0.9715   
  2.8500e-10      0.9715   
  2.8550e-10      0.9715   
  2.8600e-10      0.9714   
  2.8650e-10      0.9714   
  2.8700e-10      0.9713   
  2.8750e-10      0.9712   
  2.8800e-10      0.9711   
  2.8850e-10      0.9709   
  2.8900e-10      0.9708   
  2.8950e-10      0.9706   
  2.9000e-10      0.9704   
  2.9050e-10      0.9702   
  2.9100e-10      0.9700   
  2.9150e-10      0.9698   
  2.9200e-10      0.9695   
  2.9250e-10      0.9693   
  2.9300e-10      0.9690   
  2.9350e-10      0.9687   
  2.9400e-10      0.9684   
  2.9450e-10      0.9681   
  2.9500e-10      0.9678   
  2.9550e-10      0.9675   
  2.9600e-10      0.9671   
  2.9650e-10      0.9668   
  2.9700e-10      0.9664   
  2.9750e-10      0.9661   
  2.9800e-10      0.9657   
  2.9850e-10      0.9653   
  2.9900e-10      0.9649   
  2.9950e-10      0.9646   
  3.0000e-10      0.9642   
  3.0050e-10      0.9637   
  3.0100e-10      0.9633   
  3.0150e-10      0.9629   
  3.0200e-10      0.9625   
  3.0250e-10      0.9621   
  3.0300e-10      0.9616   
  3.0350e-10      0.9612   
  3.0400e-10      0.9607   
  3.0450e-10      0.9602   
  3.0500e-10      0.9597   
  3.0550e-10      0.9592   
  3.0600e-10      0.9587   
  3.0650e-10      0.9581   
  3.0700e-10      0.9576   
  3.0750e-10      0.9570   
  3.0800e-10      0.9564   
  3.0850e-10      0.9557   
  3.0900e-10      0.9551   
  3.0950e-10      0.9544   
  3.1000e-10      0.9536   
  3.1050e-10      0.9528   
  3.1100e-10      0.9520   
  3.1150e-10      0.9511   
  3.1200e-10      0.9502   
  3.1250e-10      0.9493   
  3.1300e-10      0.9482   
  3.1350e-10      0.9471   
  3.1400e-10      0.9460   
  3.1450e-10      0.9448   
  3.1500e-10      0.9434   
  3.1550e-10      0.9420   
  3.1600e-10      0.9405   
  3.1650e-10      0.9389   
  3.1700e-10      0.9372   
  3.1750e-10      0.9353   
  3.1800e-10      0.9333   
  3.1850e-10      0.9312   
  3.1900e-10      0.9288   
  3.1950e-10      0.9263   
  3.2000e-10      0.9237   
  3.2050e-10      0.9209   
  3.2100e-10      0.9179   
  3.2150e-10      0.9148   
  3.2200e-10      0.9115   
  3.2250e-10      0.9081   
  3.2300e-10      0.9045   
  3.2350e-10      0.9008   
  3.2400e-10      0.8969   
  3.2450e-10      0.8929   
  3.2500e-10      0.8886   
  3.2550e-10      0.8842   
  3.2600e-10      0.8796   
  3.2650e-10      0.8748   
  3.2700e-10      0.8697   
  3.2750e-10      0.8645   
  3.2800e-10      0.8590   
  3.2850e-10      0.8532   
  3.2900e-10      0.8472   
  3.2950e-10      0.8409   
  3.3000e-10      0.8344   
  3.3050e-10      0.8277   
  3.3100e-10      0.8208   
  3.3150e-10      0.8136   
  3.3200e-10      0.8063   
  3.3250e-10      0.7989   
  3.3300e-10      0.7913   
  3.3350e-10      0.7837   
  3.3400e-10      0.7760   
  3.3450e-10      0.7683   
  3.3500e-10      0.7607   
  3.3550e-10      0.7530   
  3.3600e-10      0.7455   
  3.3650e-10      0.7381   
  3.3700e-10      0.7308   
  3.3750e-10      0.7236   
  3.3800e-10      0.7166   
  3.3850e-10      0.7097   
  3.3900e-10      0.7031   
  3.3950e-10      0.6966   
  3.4000e-10      0.6902   
  3.4050e-10      0.6841   
  3.4100e-10      0.6781   
  3.4150e-10      0.6723   
  3.4200e-10      0.6666   
  3.4250e-10      0.6610   
  3.4300e-10      0.6556   
  3.4350e-10      0.6503   
  3.4400e-10      0.6451   
  3.4450e-10      0.6399   
  3.4500e-10      0.6349   
  3.4550e-10      0.6298   
  3.4600e-10      0.6249   
  3.4650e-10      0.6200   
  3.4700e-10      0.6152   
  3.4750e-10      0.6105   
  3.4800e-10      0.6059   
  3.4850e-10      0.6014   
  3.4900e-10      0.5970   
  3.4950e-10      0.5928   
  3.5000e-10      0.5888   
  3.5050e-10      0.5850   
  3.5100e-10      0.5815   
  3.5150e-10      0.5782   
  3.5200e-10      0.5753   
  3.5250e-10      0.5728   
  3.5300e-10      0.5708   
  3.5350e-10      0.5693   
  3.5400e-10      0.5685   
  3.5450e-10      0.5684   
  3.5500e-10      0.5692   
  3.5550e-10      0.5709   
  3.5600e-10      0.5736   
  3.5650e-10      0.5775   
  3.5700e-10      0.5825   
  3.5750e-10      0.5887   
  3.5800e-10      0.5962   
  3.5850e-10      0.6048   
  3.5900e-10      0.6147   
  3.5950e-10      0.6256   
  3.6000e-10      0.6374   
  3.6050e-10      0.6500   
  3.6100e-10      0.6632   
  3.6150e-10      0.6768   
  3.6200e-10      0.6906   
  3.6250e-10      0.7043   
  3.6300e-10      0.7178   
  3.6350e-10      0.7308   
  3.6400e-10      0.7432   
  3.6450e-10      0.7549   
  3.6500e-10      0.7657   
  3.6550e-10      0.7756   
  3.6600e-10      0.7847   
  3.6650e-10      0.7929   
  3.6700e-10      0.8004   
  3.6750e-10      0.8071   
  3.6800e-10      0.8132   
  3.6850e-10      0.8187   
  3.6900e-10      0.8237   
  3.6950e-10      0.8283   
  3.7000e-10      0.8326   
  3.7050e-10      0.8366   
  3.7100e-10      0.8403   
  3.7150e-10      0.8439   
  3.7200e-10      0.8472   
  3.7250e-10      0.8505   
  3.7300e-10      0.8536   
  3.7350e-10      0.8567   
  3.7400e-10      0.8596   
  3.7450e-10      0.8626   
  3.7500e-10      0.8655   
  3.7550e-10      0.8684   
  3.7600e-10      0.8713   
  3.7650e-10      0.8743   
  3.7700e-10      0.8773   
  3.7750e-10      0.8804   
  3.7800e-10      0.8836   
  3.7850e-10      0.8869   
  3.7900e-10      0.8904   
  3.7950e-10      0.8940   
  3.8000e-10      0.8977   
  3.8050e-10      0.9015   
  3.8100e-10      0.9054   
  3.8150e-10      0.9094   
  3.8200e-10      0.9135   
  3.8250e-10      0.9176   
  3.8300e-10      0.9218   
  3.8350e-10      0.9259   
  3.8400e-10      0.9301   
  3.8450e-10      0.9342   
  3.8500e-10      0.9382   
  3.8550e-10      0.9422   
  3.8600e-10      0.9462   
  3.8650e-10      0.9500   
  3.8700e-10      0.9537   
  3.8750e-10      0.9574   
  3.8800e-10      0.9610   
  3.8850e-10      0.9644   
  3.8900e-10      0.9678   
  3.8950e-10      0.9710   
  3.9000e-10      0.9741   
  3.9050e-10      0.9772   
  3.9100e-10      0.9801   
  3.9150e-10      0.9829   
  3.9200e-10      0.9856   
  3.9250e-10      0.9882   
  3.9300e-10      0.9908   
  3.9350e-10      0.9932   
  3.9400e-10      0.9955   
  3.9450e-10      0.9978   
  3.9500e-10      0.9999   
  3.9550e-10      1.0020   
  3.9600e-10      1.0040   
  3.9650e-10      1.0059   
  3.9700e-10      1.0078   
  3.9750e-10      1.0095   
  3.9800e-10      1.0112   
  3.9850e-10      1.0129   
  3.9900e-10      1.0144   
  3.9950e-10      1.0159   
  4.0000e-10      1.0173   
  4.0050e-10      1.0187   
  4.0100e-10      1.0200   
  4.0150e-10      1.0213   
  4.0200e-10      1.0225   
  4.0250e-10      1.0237   
  4.0300e-10      1.0248   
  4.0350e-10      1.0259   
  4.0400e-10      1.0269   
  4.0450e-10      1.0279   
  4.0500e-10      1.0288   
  4.0550e-10      1.0297   
  4.0600e-10      1.0306   
  4.0650e-10      1.0314   
  4.0700e-10      1.0322   
  4.0750e-10      1.0329   
  4.0800e-10      1.0337   
  4.0850e-10      1.0343   
  4.0900e-10      1.0350   
  4.0950e-10      1.0356   
  4.1000e-10      1.0363   
  4.1050e-10      1.0368   
  4.1100e-10      1.0374   
  4.1150e-10      1.0379   
  4.1200e-10      1.0384   
  4.1250e-10      1.0389   
  4.1300e-10      1.0394   
  4.1350e-10      1.0399   
  4.1400e-10      1.0403   
  4.1450e-10      1.0407   
  4.1500e-10      1.0411   
  4.1550e-10      1.0415   
  4.1600e-10      1.0418   
  4.1650e-10      1.0422   
  4.1700e-10      1.0425   
  4.1750e-10      1.0428   
  4.1800e-10      1.0431   
  4.1850e-10      1.0434   
  4.1900e-10      1.0437   
  4.1950e-10      1.0439   
  4.2000e-10      1.0442   
  4.2050e-10      1.0444   
  4.2100e-10      1.0447   
  4.2150e-10      1.0449   
  4.2200e-10      1.0451   
  4.2250e-10      1.0453   
  4.2300e-10      1.0455   
  4.2350e-10      1.0457   
  4.2400e-10      1.0459   
  4.2450e-10      1.0460   
  4.2500e-10      1.0462   
  4.2550e-10      1.0463   
  4.2600e-10      1.0465   
  4.2650e-10      1.0466   
  4.2700e-10      1.0468   
  4.2750e-10      1.0469   
  4.2800e-10      1.0470   
  4.2850e-10      1.0471   
  4.2900e-10      1.0473   
  4.2950e-10      1.0474   
  4.3000e-10      1.0475   
  4.3050e-10      1.0476   
  4.3100e-10      1.0477   
  4.3150e-10      1.0478   
  4.3200e-10      1.0478   
  4.3250e-10      1.0479   
  4.3300e-10      1.0480   
  4.3350e-10      1.0481   
  4.3400e-10      1.0482   
  4.3450e-10      1.0482   
  4.3500e-10      1.0483   
  4.3550e-10      1.0484   
  4.3600e-10      1.0484   
  4.3650e-10      1.0485   
  4.3700e-10      1.0485   
  4.3750e-10      1.0486   
  4.3800e-10      1.0486   
  4.3850e-10      1.0487   
  4.3900e-10      1.0487   
  4.3950e-10      1.0488   
  4.4000e-10      1.0488   
  4.4050e-10      1.0489   
  4.4100e-10      1.0489   
  4.4150e-10      1.0489   
  4.4200e-10      1.0490   
  4.4250e-10      1.0490   
  4.4300e-10      1.0490   
  4.4350e-10      1.0491   
  4.4400e-10      1.0491   
  4.4450e-10      1.0491   
  4.4500e-10      1.0491   
  4.4550e-10      1.0492   
  4.4600e-10      1.0492   
  4.4650e-10      1.0492   
  4.4700e-10      1.0492   
  4.4750e-10      1.0493   
  4.4800e-10      1.0493   
  4.4850e-10      1.0493   
  4.4900e-10      1.0493   
  4.4950e-10      1.0493   
  4.5000e-10      1.0493   
  4.5050e-10      1.0494   
  4.5100e-10      1.0494   
  4.5150e-10      1.0494   
  4.5200e-10      1.0494   
  4.5250e-10      1.0494   
  4.5300e-10      1.0494   
  4.5350e-10      1.0494   
  4.5400e-10      1.0494   
  4.5450e-10      1.0495   
  4.5500e-10      1.0495   
  4.5550e-10      1.0495   
  4.5600e-10      1.0495   
  4.5650e-10      1.0495   
  4.5700e-10      1.0495   
  4.5750e-10      1.0495   
  4.5800e-10      1.0495   
  4.5850e-10      1.0495   
  4.5900e-10      1.0495   
  4.5950e-10      1.0495   
  4.6000e-10      1.0495   
  4.6050e-10      1.0495   
  4.6100e-10      1.0495   
  4.6150e-10      1.0495   
  4.6200e-10      1.0495   
  4.6250e-10      1.0495   
  4.6300e-10      1.0495   
  4.6350e-10      1.0495   
  4.6400e-10      1.0495   
  4.6450e-10      1.0495   
  4.6500e-10      1.0495   
  4.6550e-10      1.0495   
  4.6600e-10      1.0495   
  4.6650e-10      1.0495   
  4.6700e-10      1.0495   
  4.6750e-10      1.0495   
  4.6800e-10      1.0495   
  4.6850e-10      1.0495   
  4.6900e-10      1.0495   
  4.6950e-10      1.0495   
  4.7000e-10      1.0495   
  4.7050e-10      1.0495   
  4.7100e-10      1.0495   
  4.7150e-10      1.0495   
  4.7200e-10      1.0495   
  4.7250e-10      1.0495   
  4.7300e-10      1.0495   
  4.7350e-10      1.0495   
  4.7400e-10      1.0495   
  4.7450e-10      1.0494   
  4.7500e-10      1.0494   
  4.7550e-10      1.0494   
  4.7600e-10      1.0494   
  4.7650e-10      1.0494   
  4.7700e-10      1.0494   
  4.7750e-10      1.0494   
  4.7800e-10      1.0494   
  4.7850e-10      1.0494   
  4.7900e-10      1.0493   
  4.7950e-10      1.0493   
  4.8000e-10      1.0493   
  4.8050e-10      1.0493   
  4.8100e-10      1.0493   
  4.8150e-10      1.0493   
  4.8200e-10      1.0493   
  4.8250e-10      1.0492   
  4.8300e-10      1.0492   
  4.8350e-10      1.0492   
  4.8400e-10      1.0492   
  4.8450e-10      1.0492   
  4.8500e-10      1.0491   
  4.8550e-10      1.0491   
  4.8600e-10      1.0491   
  4.8650e-10      1.0491   
  4.8700e-10      1.0490   
  4.8750e-10      1.0490   
  4.8800e-10      1.0490   
  4.8850e-10      1.0490   
  4.8900e-10      1.0490   
  4.8950e-10      1.0489   
  4.9000e-10      1.0489   
  4.9050e-10      1.0489   
  4.9100e-10      1.0488   
  4.9150e-10      1.0488   
  4.9200e-10      1.0488   
  4.9250e-10      1.0488   
  4.9300e-10      1.0487   
  4.9350e-10      1.0487   
  4.9400e-10      1.0487   
  4.9450e-10      1.0487   
  4.9500e-10      1.0486   
  4.9550e-10      1.0486   
  4.9600e-10      1.0486   
  4.9650e-10      1.0486   
  4.9700e-10      1.0486   
  4.9750e-10      1.0485   
  4.9800e-10      1.0485   
  4.9850e-10      1.0485   
  4.9900e-10      1.0485   
  4.9950e-10      1.0485   
  5.0000e-10      1.0485   
  5.0050e-10      1.0485   
  5.0100e-10      1.0485   
  5.0150e-10      1.0485   
  5.0200e-10      1.0485   
  5.0250e-10      1.0485   
  5.0300e-10      1.0485   
  5.0350e-10      1.0485   
  5.0400e-10      1.0486   
  5.0450e-10      1.0486   
  5.0500e-10      1.0486   
  5.0550e-10      1.0487   
  5.0600e-10      1.0487   
  5.0650e-10      1.0488   
  5.0700e-10      1.0489   
  5.0750e-10      1.0490   
  5.0800e-10      1.0490   
  5.0850e-10      1.0491   
  5.0900e-10      1.0493   
  5.0950e-10      1.0494   
  5.1000e-10      1.0495   
  5.1050e-10      1.0497   
  5.1100e-10      1.0499   
  5.1150e-10      1.0501   
  5.1200e-10      1.0504   
  5.1250e-10      1.0506   
  5.1300e-10      1.0509   
  5.1350e-10      1.0512   
  5.1400e-10      1.0515   
  5.1450e-10      1.0519   
  5.1500e-10      1.0522   
  5.1550e-10      1.0526   
  5.1600e-10      1.0530   
  5.1650e-10      1.0534   
  5.1700e-10      1.0538   
  5.1750e-10      1.0542   
  5.1800e-10      1.0547   
  5.1850e-10      1.0551   
  5.1900e-10      1.0556   
  5.1950e-10      1.0561   
  5.2000e-10      1.0566   
  5.2050e-10      1.0571   
  5.2100e-10      1.0576   
  5.2150e-10      1.0582   
  5.2200e-10      1.0587   
  5.2250e-10      1.0593   
  5.2300e-10      1.0599   
  5.2350e-10      1.0605   
  5.2400e-10      1.0610   
  5.2450e-10      1.0616   
  5.2500e-10      1.0622   
  5.2550e-10      1.0629   
  5.2600e-10      1.0635   
  5.2650e-10      1.0641   
  5.2700e-10      1.0647   
  5.2750e-10      1.0653   
  5.2800e-10      1.0660   
  5.2850e-10      1.0666   
  5.2900e-10      1.0672   
  5.2950e-10      1.0678   
  5.3000e-10      1.0684   
  5.3050e-10      1.0691   
  5.3100e-10      1.0697   
  5.3150e-10      1.0703   
  5.3200e-10      1.0709   
  5.3250e-10      1.0715   
  5.3300e-10      1.0721   
  5.3350e-10      1.0727   
  5.3400e-10      1.0733   
  5.3450e-10      1.0739   
  5.3500e-10      1.0745   
  5.3550e-10      1.0750   
  5.3600e-10      1.0756   
  5.3650e-10      1.0761   
  5.3700e-10      1.0767   
  5.3750e-10      1.0772   
  5.3800e-10      1.0777   
  5.3850e-10      1.0782   
  5.3900e-10      1.0787   
  5.3950e-10      1.0792   
  5.4000e-10      1.0797   
  5.4050e-10      1.0801   
  5.4100e-10      1.0806   
  5.4150e-10      1.0810   
  5.4200e-10      1.0814   
  5.4250e-10      1.0818   
  5.4300e-10      1.0821   
  5.4350e-10      1.0825   
  5.4400e-10      1.0828   
  5.4450e-10      1.0830   
  5.4500e-10      1.0833   
  5.4550e-10      1.0835   
  5.4600e-10      1.0837   
  5.4650e-10      1.0838   
  5.4700e-10      1.0839   
  5.4750e-10      1.0840   
  5.4800e-10      1.0840   
  5.4850e-10      1.0839   
  5.4900e-10      1.0839   
  5.4950e-10      1.0837   
  5.5000e-10      1.0835   
  5.5050e-10      1.0833   
  5.5100e-10      1.0831   
  5.5150e-10      1.0828   
  5.5200e-10      1.0824   
  5.5250e-10      1.0821   
  5.5300e-10      1.0817   
  5.5350e-10      1.0813   
  5.5400e-10      1.0810   
  5.5450e-10      1.0806   
  5.5500e-10      1.0803   
  5.5550e-10      1.0801   
  5.5600e-10      1.0799   
  5.5650e-10      1.0797   
  5.5700e-10      1.0796   
  5.5750e-10      1.0795   
  5.5800e-10      1.0795   
  5.5850e-10      1.0795   
  5.5900e-10      1.0795   
  5.5950e-10      1.0796   
  5.6000e-10      1.0796   
  5.6050e-10      1.0797   
  5.6100e-10      1.0797   
  5.6150e-10      1.0797   
  5.6200e-10      1.0797   
  5.6250e-10      1.0796   
  5.6300e-10      1.0795   
  5.6350e-10      1.0793   
  5.6400e-10      1.0791   
  5.6450e-10      1.0789   
  5.6500e-10      1.0787   
  5.6550e-10      1.0786   
  5.6600e-10      1.0785   
  5.6650e-10      1.0784   
  5.6700e-10      1.0785   
  5.6750e-10      1.0786   
  5.6800e-10      1.0788   
  5.6850e-10      1.0791   
  5.6900e-10      1.0794   
  5.6950e-10      1.0798   
  5.7000e-10      1.0803   
  5.7050e-10      1.0809   
  5.7100e-10      1.0815   
  5.7150e-10      1.0822   
  5.7200e-10      1.0830   
  5.7250e-10      1.0839   
  5.7300e-10      1.0848   
  5.7350e-10      1.0858   
  5.7400e-10      1.0869   
  5.7450e-10      1.0880   
  5.7500e-10      1.0893   
  5.7550e-10      1.0906   
  5.7600e-10      1.0920   
  5.7650e-10      1.0934   
  5.7700e-10      1.0950   
  5.7750e-10      1.0966   
  5.7800e-10      1.0982   
  5.7850e-10      1.1000   
  5.7900e-10      1.1018   
  5.7950e-10      1.1036   
  5.8000e-10      1.1055   
  5.8050e-10      1.1074   
  5.8100e-10      1.1094   
  5.8150e-10      1.1113   
  5.8200e-10      1.1133   
  5.8250e-10      1.1153   
  5.8300e-10      1.1173   
  5.8350e-10      1.1193   
  5.8400e-10      1.1213   
  5.8450e-10      1.1233   
  5.8500e-10      1.1253   
  5.8550e-10      1.1272   
  5.8600e-10      1.1291   
  5.8650e-10      1.1310   
  5.8700e-10      1.1329   
  5.8750e-10      1.1347   
  5.8800e-10      1.1364   
  5.8850e-10      1.1381   
  5.8900e-10      1.1398   
  5.8950e-10      1.1414   
  5.9000e-10      1.1430   
  5.9050e-10      1.1444   
  5.9100e-10      1.1459   
  5.9150e-10      1.1472   
  5.9200e-10      1.1485   
  5.9250e-10      1.1497   
  5.9300e-10      1.1509   
  5.9350e-10      1.1520   
  5.9400e-10      1.1530   
  5.9450e-10      1.1540   
  5.9500e-10      1.1549   
  5.9550e-10      1.1557   
  5.9600e-10      1.1565   
  5.9650e-10      1.1573   
  5.9700e-10      1.1580   
  5.9750e-10      1.1587   
  5.9800e-10      1.1593   
  5.9850e-10      1.1600   
  5.9900e-10      1.1605   
  5.9950e-10      1.1611   
  6.0000e-10      1.1616   
  6.0050e-10      1.1622   
  6.0100e-10      1.1627   
  6.0150e-10      1.1631   
  6.0200e-10      1.1636   
  6.0250e-10      1.1640   
  6.0300e-10      1.1645   
  6.0350e-10      1.1649   
  6.0400e-10      1.1653   
  6.0450e-10      1.1657   
  6.0500e-10      1.1660   
  6.0550e-10      1.1664   
  6.0600e-10      1.1667   
  6.0650e-10      1.1670   
  6.0700e-10      1.1674   
  6.0750e-10      1.1677   
  6.0800e-10      1.1680   
  6.0850e-10      1.1682   
  6.0900e-10      1.1685   
  6.0950e-10      1.1688   
  6.1000e-10      1.1690   
  6.1050e-10      1.1693   
  6.1100e-10      1.1695   
  6.1150e-10      1.1698   
  6.1200e-10      1.1700   
  6.1250e-10      1.1702   
  6.1300e-10      1.1704   
  6.1350e-10      1.1706   
  6.1400e-10      1.1708   
  6.1450e-10      1.1710   
  6.1500e-10      1.1712   
  6.1550e-10      1.1713   
  6.1600e-10      1.1715   
  6.1650e-10      1.1717   
  6.1700e-10      1.1718   
  6.1750e-10      1.1720   
  6.1800e-10      1.1721   
  6.1850e-10      1.1723   
  6.1900e-10      1.1724   
  6.1950e-10      1.1725   
  6.2000e-10      1.1727   
  6.2050e-10      1.1728   
  6.2100e-10      1.1729   
  6.2150e-10      1.1730   
  6.2200e-10      1.1731   
  6.2250e-10      1.1732   
  6.2300e-10      1.1733   
  6.2350e-10      1.1734   
  6.2400e-10      1.1735   
  6.2450e-10      1.1736   
  6.2500e-10      1.1737   
  6.2550e-10      1.1738   
  6.2600e-10      1.1739   
  6.2650e-10      1.1740   
  6.2700e-10      1.1741   
  6.2750e-10      1.1741   
  6.2800e-10      1.1742   
  6.2850e-10      1.1743   
  6.2900e-10      1.1744   
  6.2950e-10      1.1744   
  6.3000e-10      1.1745   
  6.3050e-10      1.1746   
  6.3100e-10      1.1746   
  6.3150e-10      1.1747   
  6.3200e-10      1.1747   
  6.3250e-10      1.1748   
  6.3300e-10      1.1748   
  6.3350e-10      1.1749   
  6.3400e-10      1.1749   
  6.3450e-10      1.1750   
  6.3500e-10      1.1750   
  6.3550e-10      1.1751   
  6.3600e-10      1.1751   
  6.3650e-10      1.1752   
  6.3700e-10      1.1752   
  6.3750e-10      1.1752   
  6.3800e-10      1.1753   
  6.3850e-10      1.1753   
  6.3900e-10      1.1753   
  6.3950e-10      1.1754   
  6.4000e-10      1.1754   
  6.4050e-10      1.1754   
  6.4100e-10      1.1755   
  6.4150e-10      1.1755   
  6.4200e-10      1.1755   
  6.4250e-10      1.1756   
  6.4300e-10      1.1756   
  6.4350e-10      1.1756   
  6.4400e-10      1.1756   
  6.4450e-10      1.1757   
  6.4500e-10      1.1757   
  6.4550e-10      1.1757   
  6.4600e-10      1.1757   
  6.4650e-10      1.1757   
  6.4700e-10      1.1758   
  6.4750e-10      1.1758   
  6.4800e-10      1.1758   
  6.4850e-10      1.1758   
  6.4900e-10      1.1758   
  6.4950e-10      1.1759   
  6.5000e-10      1.1759   
  6.5050e-10      1.1759   
  6.5100e-10      1.1759   
  6.5150e-10      1.1759   
  6.5200e-10      1.1759   
  6.5250e-10      1.1759   
  6.5300e-10      1.1760   
  6.5350e-10      1.1760   
  6.5400e-10      1.1760   
  6.5450e-10      1.1760   
  6.5500e-10      1.1760   
  6.5550e-10      1.1760   
  6.5600e-10      1.1760   
  6.5650e-10      1.1760   
  6.5700e-10      1.1760   
  6.5750e-10      1.1760   
  6.5800e-10      1.1761   
  6.5850e-10      1.1761   
  6.5900e-10      1.1761   
  6.5950e-10      1.1761   
  6.6000e-10      1.1761   
  6.6050e-10      1.1761   
  6.6100e-10      1.1761   
  6.6150e-10      1.1761   
  6.6200e-10      1.1761   
  6.6250e-10      1.1761   
  6.6300e-10      1.1761   
  6.6350e-10      1.1761   
  6.6400e-10      1.1761   
  6.6450e-10      1.1761   
  6.6500e-10      1.1761   
  6.6550e-10      1.1761   
  6.6600e-10      1.1761   
  6.6650e-10      1.1761   
  6.6700e-10      1.1762   
  6.6750e-10      1.1762   
  6.6800e-10      1.1762   
  6.6850e-10      1.1762   
  6.6900e-10      1.1762   
  6.6950e-10      1.1762   
  6.7000e-10      1.1762   
  6.7050e-10      1.1762   
  6.7100e-10      1.1762   
  6.7150e-10      1.1762   
  6.7200e-10      1.1762   
  6.7250e-10      1.1762   
  6.7300e-10      1.1762   
  6.7350e-10      1.1762   
  6.7400e-10      1.1762   
  6.7450e-10      1.1762   
  6.7500e-10      1.1762   
  6.7550e-10      1.1762   
  6.7600e-10      1.1762   
  6.7650e-10      1.1762   
  6.7700e-10      1.1762   
  6.7750e-10      1.1762   
  6.7800e-10      1.1762   
  6.7850e-10      1.1762   
  6.7900e-10      1.1762   
  6.7950e-10      1.1762   
  6.8000e-10      1.1762   
  6.8050e-10      1.1762   
  6.8100e-10      1.1762   
  6.8150e-10      1.1762   
  6.8200e-10      1.1762   
  6.8250e-10      1.1762   
  6.8300e-10      1.1762   
  6.8350e-10      1.1762   
  6.8400e-10      1.1762   
  6.8450e-10      1.1762   
  6.8500e-10      1.1762   
  6.8550e-10      1.1762   
  6.8600e-10      1.1762   
  6.8650e-10      1.1762   
  6.8700e-10      1.1762   
  6.8750e-10      1.1762   
  6.8800e-10      1.1762   
  6.8850e-10      1.1762   
  6.8900e-10      1.1762   
  6.8950e-10      1.1762   
  6.9000e-10      1.1762   
  6.9050e-10      1.1762   
  6.9100e-10      1.1762   
  6.9150e-10      1.1762   
  6.9200e-10      1.1762   
  6.9250e-10      1.1762   
  6.9300e-10      1.1762   
  6.9350e-10      1.1762   
  6.9400e-10      1.1762   
  6.9450e-10      1.1762   
  6.9500e-10      1.1762   
  6.9550e-10      1.1762   
  6.9600e-10      1.1762   
  6.9650e-10      1.1762   
  6.9700e-10      1.1761   
  6.9750e-10      1.1761   
  6.9800e-10      1.1761   
  6.9850e-10      1.1761   
  6.9900e-10      1.1761   
  6.9950e-10      1.1761   
  7.0000e-10      1.1761   
  7.0050e-10      1.1761   
  7.0100e-10      1.1761   
  7.0150e-10      1.1761   
  7.0200e-10      1.1761   
  7.0250e-10      1.1761   
  7.0300e-10      1.1761   
  7.0350e-10      1.1761   
  7.0400e-10      1.1761   
  7.0450e-10      1.1761   
  7.0500e-10      1.1761   
  7.0550e-10      1.1761   
  7.0600e-10      1.1761   
  7.0650e-10      1.1761   
  7.0700e-10      1.1761   
  7.0750e-10      1.1761   
  7.0800e-10      1.1761   
  7.0850e-10      1.1761   
  7.0900e-10      1.1761   
  7.0950e-10      1.1761   
  7.1000e-10      1.1761   
  7.1050e-10      1.1761   
  7.1100e-10      1.1761   
  7.1150e-10      1.1761   
  7.1200e-10      1.1761   
  7.1250e-10      1.1761   
  7.1300e-10      1.1761   
  7.1350e-10      1.1761   
  7.1400e-10      1.1761   
  7.1450e-10      1.1761   
  7.1500e-10      1.1761   
  7.1550e-10      1.1761   
  7.1600e-10      1.1761   
  7.1650e-10      1.1761   
  7.1700e-10      1.1761   
  7.1750e-10      1.1761   
  7.1800e-10      1.1761   
  7.1850e-10      1.1761   
  7.1900e-10      1.1760   
  7.1950e-10      1.1760   
  7.2000e-10      1.1760   
  7.2050e-10      1.1760   
  7.2100e-10      1.1760   
  7.2150e-10      1.1760   
  7.2200e-10      1.1760   
  7.2250e-10      1.1760   
  7.2300e-10      1.1760   
  7.2350e-10      1.1760   
  7.2400e-10      1.1760   
  7.2450e-10      1.1760   
  7.2500e-10      1.1760   
  7.2550e-10      1.1760   
  7.2600e-10      1.1760   
  7.2650e-10      1.1760   
  7.2700e-10      1.1760   
  7.2750e-10      1.1760   
  7.2800e-10      1.1760   
  7.2850e-10      1.1760   
  7.2900e-10      1.1760   
  7.2950e-10      1.1760   
  7.3000e-10      1.1760   
  7.3050e-10      1.1760   
  7.3100e-10      1.1760   
  7.3150e-10      1.1760   
  7.3200e-10      1.1760   
  7.3250e-10      1.1760   
  7.3300e-10      1.1760   
  7.3350e-10      1.1760   
  7.3400e-10      1.1760   
  7.3450e-10      1.1760   
  7.3500e-10      1.1760   
  7.3550e-10      1.1760   
  7.3600e-10      1.1760   
  7.3650e-10      1.1760   
  7.3700e-10      1.1760   
  7.3750e-10      1.1759   
  7.3800e-10      1.1759   
  7.3850e-10      1.1759   
  7.3900e-10      1.1759   
  7.3950e-10      1.1759   
  7.4000e-10      1.1759   
  7.4050e-10      1.1759   
  7.4100e-10      1.1759   
  7.4150e-10      1.1759   
  7.4200e-10      1.1759   
  7.4250e-10      1.1759   
  7.4300e-10      1.1759   
  7.4350e-10      1.1759   
  7.4400e-10      1.1759   
  7.4450e-10      1.1759   
  7.4500e-10      1.1759   
  7.4550e-10      1.1759   
  7.4600e-10      1.1759   
  7.4650e-10      1.1759   
  7.4700e-10      1.1759   
  7.4750e-10      1.1759   
  7.4800e-10      1.1759   
  7.4850e-10      1.1759   
  7.4900e-10      1.1759   
  7.4950e-10      1.1759   
  7.5000e-10      1.1759   
  7.5050e-10      1.1759   
  7.5100e-10      1.1759   
  7.5150e-10      1.1759   
  7.5200e-10      1.1759   
  7.5250e-10      1.1759   
  7.5300e-10      1.1759   
  7.5350e-10      1.1759   
  7.5400e-10      1.1759   
  7.5450e-10      1.1759   
  7.5500e-10      1.1758   
  7.5550e-10      1.1758   
  7.5600e-10      1.1758   
  7.5650e-10      1.1758   
  7.5700e-10      1.1758   
  7.5750e-10      1.1758   
  7.5800e-10      1.1758   
  7.5850e-10      1.1758   
  7.5900e-10      1.1758   
  7.5950e-10      1.1758   
  7.6000e-10      1.1758   
  7.6050e-10      1.1758   
  7.6100e-10      1.1758   
  7.6150e-10      1.1758   
  7.6200e-10      1.1758   
  7.6250e-10      1.1758   
  7.6300e-10      1.1758   
  7.6350e-10      1.1758   
  7.6400e-10      1.1758   
  7.6450e-10      1.1758   
  7.6500e-10      1.1758   
  7.6550e-10      1.1758   
  7.6600e-10      1.1758   
  7.6650e-10      1.1758   
  7.6700e-10      1.1758   
  7.6750e-10      1.1758   
  7.6800e-10      1.1758   
  7.6850e-10      1.1758   
  7.6900e-10      1.1758   
  7.6950e-10      1.1758   
  7.7000e-10      1.1758   
  7.7050e-10      1.1758   
  7.7100e-10      1.1758   
  7.7150e-10      1.1758   
  7.7200e-10      1.1758   
  7.7250e-10      1.1757   
  7.7300e-10      1.1757   
  7.7350e-10      1.1757   
  7.7400e-10      1.1757   
  7.7450e-10      1.1757   
  7.7500e-10      1.1757   
  7.7550e-10      1.1757   
  7.7600e-10      1.1757   
  7.7650e-10      1.1757   
  7.7700e-10      1.1757   
  7.7750e-10      1.1757   
  7.7800e-10      1.1757   
  7.7850e-10      1.1757   
  7.7900e-10      1.1757   
  7.7950e-10      1.1757   
  7.8000e-10      1.1757   
  7.8050e-10      1.1757   
  7.8100e-10      1.1757   
  7.8150e-10      1.1757   
  7.8200e-10      1.1757   
  7.8250e-10      1.1757   
  7.8300e-10      1.1757   
  7.8350e-10      1.1757   
  7.8400e-10      1.1757   
  7.8450e-10      1.1757   
  7.8500e-10      1.1757   
  7.8550e-10      1.1757   
  7.8600e-10      1.1757   
  7.8650e-10      1.1757   
  7.8700e-10      1.1757   
  7.8750e-10      1.1757   
  7.8800e-10      1.1757   
  7.8850e-10      1.1757   
  7.8900e-10      1.1757   
  7.8950e-10      1.1756   
  7.9000e-10      1.1756   
  7.9050e-10      1.1756   
  7.9100e-10      1.1756   
  7.9150e-10      1.1756   
  7.9200e-10      1.1756   
  7.9250e-10      1.1756   
  7.9300e-10      1.1756   
  7.9350e-10      1.1756   
  7.9400e-10      1.1756   
  7.9450e-10      1.1756   
  7.9500e-10      1.1756   
  7.9550e-10      1.1756   
  7.9600e-10      1.1756   
  7.9650e-10      1.1756   
  7.9700e-10      1.1756   
  7.9750e-10      1.1756   
  7.9800e-10      1.1756   
  7.9850e-10      1.1756   
  7.9900e-10      1.1756   
  7.9950e-10      1.1756   
  8.0000e-10      1.1756   
  8.0050e-10      1.1756   
  8.0100e-10      1.1756   
  8.0150e-10      1.1756   
  8.0200e-10      1.1756   
  8.0250e-10      1.1756   
  8.0300e-10      1.1756   
  8.0350e-10      1.1756   
  8.0400e-10      1.1756   
  8.0450e-10      1.1756   
  8.0500e-10      1.1756   
  8.0550e-10      1.1756   
  8.0600e-10      1.1756   
  8.0650e-10      1.1755   
  8.0700e-10      1.1755   
  8.0750e-10      1.1755   
  8.0800e-10      1.1755   
  8.0850e-10      1.1755   
  8.0900e-10      1.1755   
  8.0950e-10      1.1755   
  8.1000e-10      1.1755   
  8.1050e-10      1.1755   
  8.1100e-10      1.1755   
  8.1150e-10      1.1755   
  8.1200e-10      1.1755   
  8.1250e-10      1.1755   
  8.1300e-10      1.1755   
  8.1350e-10      1.1755   
  8.1400e-10      1.1755   
  8.1450e-10      1.1755   
  8.1500e-10      1.1755   
  8.1550e-10      1.1755   
  8.1600e-10      1.1755   
  8.1650e-10      1.1755   
  8.1700e-10      1.1755   
  8.1750e-10      1.1755   
  8.1800e-10      1.1755   
  8.1850e-10      1.1755   
  8.1900e-10      1.1755   
  8.1950e-10      1.1755   
  8.2000e-10      1.1755   
  8.2050e-10      1.1755   
  8.2100e-10      1.1755   
  8.2150e-10      1.1755   
  8.2200e-10      1.1755   
  8.2250e-10      1.1755   
  8.2300e-10      1.1754   
  8.2350e-10      1.1754   
  8.2400e-10      1.1754   
  8.2450e-10      1.1754   
  8.2500e-10      1.1754   
  8.2550e-10      1.1754   
  8.2600e-10      1.1754   
  8.2650e-10      1.1754   
  8.2700e-10      1.1754   
  8.2750e-10      1.1754   
  8.2800e-10      1.1754   
  8.2850e-10      1.1754   
  8.2900e-10      1.1754   
  8.2950e-10      1.1754   
  8.3000e-10      1.1754   
  8.3050e-10      1.1754   
  8.3100e-10      1.1754   
  8.3150e-10      1.1754   
  8.3200e-10      1.1754   
  8.3250e-10      1.1754   
  8.3300e-10      1.1754   
  8.3350e-10      1.1754   
  8.3400e-10      1.1754   
  8.3450e-10      1.1754   
  8.3500e-10      1.1754   
  8.3550e-10      1.1754   
  8.3600e-10      1.1754   
  8.3650e-10      1.1754   
  8.3700e-10      1.1754   
  8.3750e-10      1.1754   
  8.3800e-10      1.1754   
  8.3850e-10      1.1754   
  8.3900e-10      1.1754   
  8.3950e-10      1.1753   
  8.4000e-10      1.1753   
  8.4050e-10      1.1753   
  8.4100e-10      1.1753   
  8.4150e-10      1.1753   
  8.4200e-10      1.1753   
  8.4250e-10      1.1753   
  8.4300e-10      1.1753   
  8.4350e-10      1.1753   
  8.4400e-10      1.1753   
  8.4450e-10      1.1753   
  8.4500e-10      1.1753   
  8.4550e-10      1.1753   
  8.4600e-10      1.1753   
  8.4650e-10      1.1753   
  8.4700e-10      1.1753   
  8.4750e-10      1.1753   
  8.4800e-10      1.1753   
  8.4850e-10      1.1753   
  8.4900e-10      1.1753   
  8.4950e-10      1.1753   
  8.5000e-10      1.1753   
  8.5050e-10      1.1753   
  8.5100e-10      1.1753   
  8.5150e-10      1.1753   
  8.5200e-10      1.1753   
  8.5250e-10      1.1753   
  8.5300e-10      1.1753   
  8.5350e-10      1.1753   
  8.5400e-10      1.1753   
  8.5450e-10      1.1753   
  8.5500e-10      1.1753   
  8.5550e-10      1.1753   
  8.5600e-10      1.1752   
  8.5650e-10      1.1752   
  8.5700e-10      1.1752   
  8.5750e-10      1.1752   
  8.5800e-10      1.1752   
  8.5850e-10      1.1752   
  8.5900e-10      1.1752   
  8.5950e-10      1.1752   
  8.6000e-10      1.1752   
  8.6050e-10      1.1752   
  8.6100e-10      1.1752   
  8.6150e-10      1.1752   
  8.6200e-10      1.1752   
  8.6250e-10      1.1752   
  8.6300e-10      1.1752   
  8.6350e-10      1.1752   
  8.6400e-10      1.1752   
  8.6450e-10      1.1752   
  8.6500e-10      1.1752   
  8.6550e-10      1.1752   
  8.6600e-10      1.1752   
  8.6650e-10      1.1752   
  8.6700e-10      1.1752   
  8.6750e-10      1.1752   
  8.6800e-10      1.1752   
  8.6850e-10      1.1752   
  8.6900e-10      1.1752   
  8.6950e-10      1.1752   
  8.7000e-10      1.1752   
  8.7050e-10      1.1752   
  8.7100e-10      1.1752   
  8.7150e-10      1.1752   
  8.7200e-10      1.1752   
  8.7250e-10      1.1752   
  8.7300e-10      1.1751   
  8.7350e-10      1.1751   
  8.7400e-10      1.1751   
  8.7450e-10      1.1751   
  8.7500e-10      1.1751   
  8.7550e-10      1.1751   
  8.7600e-10      1.1751   
  8.7650e-10      1.1751   
  8.7700e-10      1.1751   
  8.7750e-10      1.1751   
  8.7800e-10      1.1751   
  8.7850e-10      1.1751   
  8.7900e-10      1.1751   
  8.7950e-10      1.1751   
  8.8000e-10      1.1751   
  8.8050e-10      1.1751   
  8.8100e-10      1.1751   
  8.8150e-10      1.1751   
  8.8200e-10      1.1751   
  8.8250e-10      1.1751   
  8.8300e-10      1.1751   
  8.8350e-10      1.1751   
  8.8400e-10      1.1751   
  8.8450e-10      1.1751   
  8.8500e-10      1.1751   
  8.8550e-10      1.1751   
  8.8600e-10      1.1751   
  8.8650e-10      1.1751   
  8.8700e-10      1.1751   
  8.8750e-10      1.1751   
  8.8800e-10      1.1751   
  8.8850e-10      1.1751   
  8.8900e-10      1.1751   
  8.8950e-10      1.1750   
  8.9000e-10      1.1750   
  8.9050e-10      1.1750   
  8.9100e-10      1.1750   
  8.9150e-10      1.1750   
  8.9200e-10      1.1750   
  8.9250e-10      1.1750   
  8.9300e-10      1.1750   
  8.9350e-10      1.1750   
  8.9400e-10      1.1750   
  8.9450e-10      1.1750   
  8.9500e-10      1.1750   
  8.9550e-10      1.1750   
  8.9600e-10      1.1750   
  8.9650e-10      1.1750   
  8.9700e-10      1.1750   
  8.9750e-10      1.1750   
  8.9800e-10      1.1750   
  8.9850e-10      1.1750   
  8.9900e-10      1.1750   
  8.9950e-10      1.1750   
  9.0000e-10      1.1750   
  9.0050e-10      1.1750   
  9.0100e-10      1.1750   
  9.0150e-10      1.1750   
  9.0200e-10      1.1750   
  9.0250e-10      1.1750   
  9.0300e-10      1.1750   
  9.0350e-10      1.1750   
  9.0400e-10      1.1750   
  9.0450e-10      1.1750   
  9.0500e-10      1.1750   
  9.0550e-10      1.1750   
  9.0600e-10      1.1749   
  9.0650e-10      1.1749   
  9.0700e-10      1.1749   
  9.0750e-10      1.1749   
  9.0800e-10      1.1749   
  9.0850e-10      1.1749   
  9.0900e-10      1.1749   
  9.0950e-10      1.1749   
  9.1000e-10      1.1749   
  9.1050e-10      1.1749   
  9.1100e-10      1.1749   
  9.1150e-10      1.1749   
  9.1200e-10      1.1749   
  9.1250e-10      1.1749   
  9.1300e-10      1.1749   
  9.1350e-10      1.1749   
  9.1400e-10      1.1749   
  9.1450e-10      1.1749   
  9.1500e-10      1.1749   
  9.1550e-10      1.1749   
  9.1600e-10      1.1749   
  9.1650e-10      1.1749   
  9.1700e-10      1.1749   
  9.1750e-10      1.1749   
  9.1800e-10      1.1749   
  9.1850e-10      1.1749   
  9.1900e-10      1.1749   
  9.1950e-10      1.1749   
  9.2000e-10      1.1749   
  9.2050e-10      1.1749   
  9.2100e-10      1.1749   
  9.2150e-10      1.1749   
  9.2200e-10      1.1749   
  9.2250e-10      1.1748   
  9.2300e-10      1.1748   
  9.2350e-10      1.1748   
  9.2400e-10      1.1748   
  9.2450e-10      1.1748   
  9.2500e-10      1.1748   
  9.2550e-10      1.1748   
  9.2600e-10      1.1748   
  9.2650e-10      1.1748   
  9.2700e-10      1.1748   
  9.2750e-10      1.1748   
  9.2800e-10      1.1748   
  9.2850e-10      1.1748   
  9.2900e-10      1.1748   
  9.2950e-10      1.1748   
  9.3000e-10      1.1748   
  9.3050e-10      1.1748   
  9.3100e-10      1.1748   
  9.3150e-10      1.1748   
  9.3200e-10      1.1748   
  9.3250e-10      1.1748   
  9.3300e-10      1.1748   
  9.3350e-10      1.1748   
  9.3400e-10      1.1748   
  9.3450e-10      1.1748   
  9.3500e-10      1.1748   
  9.3550e-10      1.1748   
  9.3600e-10      1.1748   
  9.3650e-10      1.1748   
  9.3700e-10      1.1748   
  9.3750e-10      1.1748   
  9.3800e-10      1.1748   
  9.3850e-10      1.1748   
  9.3900e-10      1.1747   
  9.3950e-10      1.1747   
  9.4000e-10      1.1747   
  9.4050e-10      1.1747   
  9.4100e-10      1.1747   
  9.4150e-10      1.1747   
  9.4200e-10      1.1747   
  9.4250e-10      1.1747   
  9.4300e-10      1.1747   
  9.4350e-10      1.1747   
  9.4400e-10      1.1747   
  9.4450e-10      1.1747   
  9.4500e-10      1.1747   
  9.4550e-10      1.1747   
  9.4600e-10      1.1747   
  9.4650e-10      1.1747   
  9.4700e-10      1.1747   
  9.4750e-10      1.1747   
  9.4800e-10      1.1747   
  9.4850e-10      1.1747   
  9.4900e-10      1.1747   
  9.4950e-10      1.1747   
  9.5000e-10      1.1747   
  9.5050e-10      1.1747   
  9.5100e-10      1.1747   
  9.5150e-10      1.1747   
  9.5200e-10      1.1747   
  9.5250e-10      1.1747   
  9.5300e-10      1.1747   
  9.5350e-10      1.1747   
  9.5400e-10      1.1747   
  9.5450e-10      1.1747   
  9.5500e-10      1.1747   
  9.5550e-10      1.1746   
  9.5600e-10      1.1746   
  9.5650e-10      1.1746   
  9.5700e-10      1.1746   
  9.5750e-10      1.1746   
  9.5800e-10      1.1746   
  9.5850e-10      1.1746   
  9.5900e-10      1.1746   
  9.5950e-10      1.1746   
  9.6000e-10      1.1746   
  9.6050e-10      1.1746   
  9.6100e-10      1.1746   
  9.6150e-10      1.1746   
  9.6200e-10      1.1746   
  9.6250e-10      1.1746   
  9.6300e-10      1.1746   
  9.6350e-10      1.1746   
  9.6400e-10      1.1746   
  9.6450e-10      1.1746   
  9.6500e-10      1.1746   
  9.6550e-10      1.1746   
  9.6600e-10      1.1746   
  9.6650e-10      1.1746   
  9.6700e-10      1.1746   
  9.6750e-10      1.1746   
  9.6800e-10      1.1746   
  9.6850e-10      1.1746   
  9.6900e-10      1.1746   
  9.6950e-10      1.1746   
  9.7000e-10      1.1746   
  9.7050e-10      1.1746   
  9.7100e-10      1.1746   
  9.7150e-10      1.1746   
  9.7200e-10      1.1745   
  9.7250e-10      1.1745   
  9.7300e-10      1.1745   
  9.7350e-10      1.1745   
  9.7400e-10      1.1745   
  9.7450e-10      1.1745   
  9.7500e-10      1.1745   
  9.7550e-10      1.1745   
  9.7600e-10      1.1745   
  9.7650e-10      1.1745   
  9.7700e-10      1.1745   
  9.7750e-10      1.1745   
  9.7800e-10      1.1745   
  9.7850e-10      1.1745   
  9.7900e-10      1.1745   
  9.7950e-10      1.1745   
  9.8000e-10      1.1745   
  9.8050e-10      1.1745   
  9.8100e-10      1.1745   
  9.8150e-10      1.1745   
  9.8200e-10      1.1745   
  9.8250e-10      1.1745   
  9.8300e-10      1.1745   
  9.8350e-10      1.1745   
  9.8400e-10      1.1745   
  9.8450e-10      1.1745   
  9.8500e-10      1.1745   
  9.8550e-10      1.1745   
  9.8600e-10      1.1745   
  9.8650e-10      1.1745   
  9.8700e-10      1.1745   
  9.8750e-10      1.1745   
  9.8800e-10      1.1745   
  9.8850e-10      1.1744   
  9.8900e-10      1.1744   
  9.8950e-10      1.1744   
  9.9000e-10      1.1744   
  9.9050e-10      1.1744   
  9.9100e-10      1.1744   
  9.9150e-10      1.1744   
  9.9200e-10      1.1744   
  9.9250e-10      1.1744   
  9.9300e-10      1.1744   
  9.9350e-10      1.1744   
  9.9400e-10      1.1744   
  9.9450e-10      1.1744   
  9.9500e-10      1.1744   
  9.9550e-10      1.1744   
  9.9600e-10      1.1744   
  9.9650e-10      1.1744   
  9.9700e-10      1.1744   
  9.9750e-10      1.1744   
  9.9800e-10      1.1744   
  9.9850e-10      1.1744   
  9.9900e-10      1.1744   
  9.9950e-10      1.1744   
  1.0000e-09      1.1744   
  1.0005e-09      1.1744   
  1.0010e-09      1.1744   
  1.0015e-09      1.1744   
  1.0020e-09      1.1744   
  1.0025e-09      1.1744   
  1.0030e-09      1.1744   
  1.0035e-09      1.1744   
  1.0040e-09      1.1744   
  1.0045e-09      1.1744   
  1.0050e-09      1.1743   
  1.0055e-09      1.1743   
  1.0060e-09      1.1743   
  1.0065e-09      1.1743   
  1.0070e-09      1.1743   
  1.0075e-09      1.1743   
  1.0080e-09      1.1743   
  1.0085e-09      1.1743   
  1.0090e-09      1.1743   
  1.0095e-09      1.1743   
  1.0100e-09      1.1743   
  1.0105e-09      1.1743   
  1.0110e-09      1.1743   
  1.0115e-09      1.1743   
  1.0120e-09      1.1743   
  1.0125e-09      1.1743   
  1.0130e-09      1.1743   
  1.0135e-09      1.1743   
  1.0140e-09      1.1743   
  1.0145e-09      1.1743   
  1.0150e-09      1.1743   
  1.0155e-09      1.1743   
  1.0160e-09      1.1743   
  1.0165e-09      1.1743   
  1.0170e-09      1.1743   
  1.0175e-09      1.1743   
  1.0180e-09      1.1743   
  1.0185e-09      1.1743   
  1.0190e-09      1.1743   
  1.0195e-09      1.1743   
  1.0200e-09      1.1743   
  1.0205e-09      1.1743   
  1.0210e-09      1.1743   
  1.0215e-09      1.1742   
  1.0220e-09      1.1742   
  1.0225e-09      1.1742   
  1.0230e-09      1.1742   
  1.0235e-09      1.1742   
  1.0240e-09      1.1742   
  1.0245e-09      1.1742   
  1.0250e-09      1.1742   
  1.0255e-09      1.1742   
  1.0260e-09      1.1742   
  1.0265e-09      1.1742   
  1.0270e-09      1.1742   
  1.0275e-09      1.1742   
  1.0280e-09      1.1742   
  1.0285e-09      1.1742   
  1.0290e-09      1.1742   
  1.0295e-09      1.1742   
  1.0300e-09      1.1742   
  1.0305e-09      1.1742   
  1.0310e-09      1.1742   
  1.0315e-09      1.1742   
  1.0320e-09      1.1742   
  1.0325e-09      1.1742   
  1.0330e-09      1.1742   
  1.0335e-09      1.1742   
  1.0340e-09      1.1742   
  1.0345e-09      1.1742   
  1.0350e-09      1.1742   
  1.0355e-09      1.1742   
  1.0360e-09      1.1742   
  1.0365e-09      1.1742   
  1.0370e-09      1.1742   
  1.0375e-09      1.1742   
  1.0380e-09      1.1741   
  1.0385e-09      1.1741   
  1.0390e-09      1.1741   
  1.0395e-09      1.1741   
  1.0400e-09      1.1741   
  1.0405e-09      1.1741   
  1.0410e-09      1.1741   
  1.0415e-09      1.1741   
  1.0420e-09      1.1741   
  1.0425e-09      1.1741   
  1.0430e-09      1.1741   
  1.0435e-09      1.1741   
  1.0440e-09      1.1741   
  1.0445e-09      1.1741   
  1.0450e-09      1.1741   
  1.0455e-09      1.1741   
  1.0460e-09      1.1741   
  1.0465e-09      1.1741   
  1.0470e-09      1.1741   
  1.0475e-09      1.1741   
  1.0480e-09      1.1741   
  1.0485e-09      1.1741   
  1.0490e-09      1.1741   
  1.0495e-09      1.1741   
  1.0500e-09      1.1741   
  1.0505e-09      1.1741   
  1.0510e-09      1.1741   
  1.0515e-09      1.1741   
  1.0520e-09      1.1741   
  1.0525e-09      1.1741   
  1.0530e-09      1.1741   
  1.0535e-09      1.1741   
  1.0540e-09      1.1741   
  1.0545e-09      1.1741   
  1.0550e-09      1.1740   
  1.0555e-09      1.1740   
  1.0560e-09      1.1740   
  1.0565e-09      1.1740   
  1.0570e-09      1.1740   
  1.0575e-09      1.1740   
  1.0580e-09      1.1740   
  1.0585e-09      1.1740   
  1.0590e-09      1.1740   
  1.0595e-09      1.1740   
  1.0600e-09      1.1740   
  1.0605e-09      1.1740   
  1.0610e-09      1.1740   
  1.0615e-09      1.1740   
  1.0620e-09      1.1740   
  1.0625e-09      1.1740   
  1.0630e-09      1.1740   
  1.0635e-09      1.1740   
  1.0640e-09      1.1740   
  1.0645e-09      1.1740   
  1.0650e-09      1.1740   
  1.0655e-09      1.1740   
  1.0660e-09      1.1740   
  1.0665e-09      1.1740   
  1.0670e-09      1.1740   
  1.0675e-09      1.1740   
  1.0680e-09      1.1740   
  1.0685e-09      1.1740   
  1.0690e-09      1.1740   
  1.0695e-09      1.1740   
  1.0700e-09      1.1740   
  1.0705e-09      1.1740   
  1.0710e-09      1.1740   
  1.0715e-09      1.1739   
  1.0720e-09      1.1739   
  1.0725e-09      1.1739   
  1.0730e-09      1.1739   
  1.0735e-09      1.1739   
  1.0740e-09      1.1739   
  1.0745e-09      1.1739   
  1.0750e-09      1.1739   
  1.0755e-09      1.1739   
  1.0760e-09      1.1739   
  1.0765e-09      1.1739   
  1.0770e-09      1.1739   
  1.0775e-09      1.1739   
  1.0780e-09      1.1739   
  1.0785e-09      1.1739   
  1.0790e-09      1.1739   
  1.0795e-09      1.1739   
  1.0800e-09      1.1739   
  1.0805e-09      1.1739   
  1.0810e-09      1.1739   
  1.0815e-09      1.1739   
  1.0820e-09      1.1739   
  1.0825e-09      1.1739   
  1.0830e-09      1.1739   
  1.0835e-09      1.1739   
  1.0840e-09      1.1739   
  1.0845e-09      1.1739   
  1.0850e-09      1.1739   
  1.0855e-09      1.1739   
  1.0860e-09      1.1739   
  1.0865e-09      1.1739   
  1.0870e-09      1.1739   
  1.0875e-09      1.1739   
  1.0880e-09      1.1738   
  1.0885e-09      1.1738   
  1.0890e-09      1.1738   
  1.0895e-09      1.1738   
  1.0900e-09      1.1738   
  1.0905e-09      1.1738   
  1.0910e-09      1.1738   
  1.0915e-09      1.1738   
  1.0920e-09      1.1738   
  1.0925e-09      1.1738   
  1.0930e-09      1.1738   
  1.0935e-09      1.1738   
  1.0940e-09      1.1738   
  1.0945e-09      1.1738   
  1.0950e-09      1.1738   
  1.0955e-09      1.1738   
  1.0960e-09      1.1738   
  1.0965e-09      1.1738   
  1.0970e-09      1.1738   
  1.0975e-09      1.1738   
  1.0980e-09      1.1738   
  1.0985e-09      1.1738   
  1.0990e-09      1.1738   
  1.0995e-09      1.1738   
  1.1000e-09      1.1738   
  1.1005e-09      1.1738   
  1.1010e-09      1.1738   
  1.1015e-09      1.1738   
  1.1020e-09      1.1738   
  1.1025e-09      1.1738   
  1.1030e-09      1.1738   
  1.1035e-09      1.1738   
  1.1040e-09      1.1738   
  1.1045e-09      1.1738   
  1.1050e-09      1.1737   
  1.1055e-09      1.1737   
  1.1060e-09      1.1737   
  1.1065e-09      1.1737   
  1.1070e-09      1.1737   
  1.1075e-09      1.1737   
  1.1080e-09      1.1737   
  1.1085e-09      1.1737   
  1.1090e-09      1.1737   
  1.1095e-09      1.1737   
  1.1100e-09      1.1737   
  1.1105e-09      1.1737   
  1.1110e-09      1.1737   
  1.1115e-09      1.1737   
  1.1120e-09      1.1737   
  1.1125e-09      1.1737   
  1.1130e-09      1.1737   
  1.1135e-09      1.1737   
  1.1140e-09      1.1737   
  1.1145e-09      1.1737   
  1.1150e-09      1.1737   
  1.1155e-09      1.1737   
  1.1160e-09      1.1737   
  1.1165e-09      1.1737   
  1.1170e-09      1.1737   
  1.1175e-09      1.1737   
  1.1180e-09      1.1737   
  1.1185e-09      1.1737   
  1.1190e-09      1.1737   
  1.1195e-09      1.1737   
  1.1200e-09      1.1737   
  1.1205e-09      1.1737   
  1.1210e-09      1.1737   
  1.1215e-09      1.1736   
  1.1220e-09      1.1736   
  1.1225e-09      1.1736   
  1.1230e-09      1.1736   
  1.1235e-09      1.1736   
  1.1240e-09      1.1736   
  1.1245e-09      1.1736   
  1.1250e-09      1.1736   
  1.1255e-09      1.1736   
  1.1260e-09      1.1736   
  1.1265e-09      1.1736   
  1.1270e-09      1.1736   
  1.1275e-09      1.1736   
  1.1280e-09      1.1736   
  1.1285e-09      1.1736   
  1.1290e-09      1.1736   
  1.1295e-09      1.1736   
  1.1300e-09      1.1736   
  1.1305e-09      1.1736   
  1.1310e-09      1.1736   
  1.1315e-09      1.1736   
  1.1320e-09      1.1736   
  1.1325e-09      1.1736   
  1.1330e-09      1.1736   
  1.1335e-09      1.1736   
  1.1340e-09      1.1736   
  1.1345e-09      1.1736   
  1.1350e-09      1.1736   
  1.1355e-09      1.1736   
  1.1360e-09      1.1736   
  1.1365e-09      1.1736   
  1.1370e-09      1.1736   
  1.1375e-09      1.1736   
[...]
  8.7750e-10      1.1763   
  8.7800e-10      1.1763   
  8.7850e-10      1.1763   
  8.7900e-10      1.1763   
  8.7950e-10      1.1763   
  8.8000e-10      1.1762   
  8.8050e-10      1.1762   
  8.8100e-10      1.1762   
  8.8150e-10      1.1762   
  8.8200e-10      1.1762   
  8.8250e-10      1.1762   
  8.8300e-10      1.1762   
  8.8350e-10      1.1762   
  8.8400e-10      1.1762   
  8.8450e-10      1.1762   
  8.8500e-10      1.1762   
  8.8550e-10      1.1762   
  8.8600e-10      1.1762   
  8.8650e-10      1.1762   
  8.8700e-10      1.1762   
  8.8750e-10      1.1762   
  8.8800e-10      1.1762   
  8.8850e-10      1.1762   
  8.8900e-10      1.1762   
  8.8950e-10      1.1762   
  8.9000e-10      1.1762   
  8.9050e-10      1.1762   
  8.9100e-10      1.1762   
  8.9150e-10      1.1762   
  8.9200e-10      1.1762   
  8.9250e-10      1.1762   
  8.9300e-10      1.1762   
  8.9350e-10      1.1762   
  8.9400e-10      1.1762   
  8.9450e-10      1.1762   
  8.9500e-10      1.1762   
  8.9550e-10      1.1762   
  8.9600e-10      1.1762   
  8.9650e-10      1.1761   
  8.9700e-10      1.1761   
  8.9750e-10      1.1761   
  8.9800e-10      1.1761   
  8.9850e-10      1.1761   
  8.9900e-10      1.1761   
  8.9950e-10      1.1761   
  9.0000e-10      1.1761   
  9.0050e-10      1.1761   
  9.0100e-10      1.1761   
  9.0150e-10      1.1761   
  9.0200e-10      1.1761   
  9.0250e-10      1.1761   
  9.0300e-10      1.1761   
  9.0350e-10      1.1761   
  9.0400e-10      1.1761   
  9.0450e-10      1.1761   
  9.0500e-10      1.1761   
  9.0550e-10      1.1761   
  9.0600e-10      1.1761   
  9.0650e-10      1.1761   
  9.0700e-10      1.1761   
  9.0750e-10      1.1761   
  9.0800e-10      1.1761   
  9.0850e-10      1.1761   
  9.0900e-10      1.1761   
  9.0950e-10      1.1761   
  9.1000e-10      1.1761   
  9.1050e-10      1.1761   
  9.1100e-10      1.1761   
  9.1150e-10      1.1761   
  9.1200e-10      1.1761   
  9.1250e-10      1.1760   
  9.1300e-10      1.1760   
  9.1350e-10      1.1760   
  9.1400e-10      1.1760   
  9.1450e-10      1.1760   
  9.1500e-10      1.1760   
  9.1550e-10      1.1760   
  9.1600e-10      1.1760   
  9.1650e-10      1.1760   
  9.1700e-10      1.1760   
  9.1750e-10      1.1760   
  9.1800e-10      1.1760   
  9.1850e-10      1.1760   
  9.1900e-10      1.1760   
  9.1950e-10      1.1760   
  9.2000e-10      1.1760   
  9.2050e-10      1.1760   
  9.2100e-10      1.1760   
  9.2150e-10      1.1760   
  9.2200e-10      1.1760   
  9.2250e-10      1.1760   
  9.2300e-10      1.1760   
  9.2350e-10      1.1760   
  9.2400e-10      1.1760   
  9.2450e-10      1.1760   
  9.2500e-10      1.1760   
  9.2550e-10      1.1760   
  9.2600e-10      1.1760   
  9.2650e-10      1.1760   
  9.2700e-10      1.1760   
  9.2750e-10      1.1760   
  9.2800e-10      1.1760   
  9.2850e-10      1.1760   
  9.2900e-10      1.1759   
  9.2950e-10      1.1759   
  9.3000e-10      1.1759   
  9.3050e-10      1.1759   
  9.3100e-10      1.1759   
  9.3150e-10      1.1759   
  9.3200e-10      1.1759   
  9.3250e-10      1.1759   
  9.3300e-10      1.1759   
  9.3350e-10      1.1759   
  9.3400e-10      1.1759   
  9.3450e-10      1.1759   
  9.3500e-10      1.1759   
  9.3550e-10      1.1759   
  9.3600e-10      1.1759   
  9.3650e-10      1.1759   
  9.3700e-10      1.1759   
  9.3750e-10      1.1759   
  9.3800e-10      1.1759   
  9.3850e-10      1.1759   
  9.3900e-10      1.1759   
  9.3950e-10      1.1759   
  9.4000e-10      1.1759   
  9.4050e-10      1.1759   
  9.4100e-10      1.1759   
  9.4150e-10      1.1759   
  9.4200e-10      1.1759   
  9.4250e-10      1.1759   
  9.4300e-10      1.1759   
  9.4350e-10      1.1759   
  9.4400e-10      1.1759   
  9.4450e-10      1.1759   
  9.4500e-10      1.1758   
  9.4550e-10      1.1758   
  9.4600e-10      1.1758   
  9.4650e-10      1.1758   
  9.4700e-10      1.1758   
  9.4750e-10      1.1758   
  9.4800e-10      1.1758   
  9.4850e-10      1.1758   
  9.4900e-10      1.1758   
  9.4950e-10      1.1758   
  9.5000e-10      1.1758   
  9.5050e-10      1.1758   
  9.5100e-10      1.1758   
  9.5150e-10      1.1758   
  9.5200e-10      1.1758   
  9.5250e-10      1.1758   
  9.5300e-10      1.1758   
  9.5350e-10      1.1758   
  9.5400e-10      1.1758   
  9.5450e-10      1.1758   
  9.5500e-10      1.1758   
  9.5550e-10      1.1758   
  9.5600e-10      1.1758   
  9.5650e-10      1.1758   
  9.5700e-10      1.1758   
  9.5750e-10      1.1758   
  9.5800e-10      1.1758   
  9.5850e-10      1.1758   
  9.5900e-10      1.1758   
  9.5950e-10      1.1758   
  9.6000e-10      1.1758   
  9.6050e-10      1.1758   
  9.6100e-10      1.1758   
  9.6150e-10      1.1757   
  9.6200e-10      1.1757   
  9.6250e-10      1.1757   
  9.6300e-10      1.1757   
  9.6350e-10      1.1757   
  9.6400e-10      1.1757   
  9.6450e-10      1.1757   
  9.6500e-10      1.1757   
  9.6550e-10      1.1757   
  9.6600e-10      1.1757   
  9.6650e-10      1.1757   
  9.6700e-10      1.1757   
  9.6750e-10      1.1757   
  9.6800e-10      1.1757   
  9.6850e-10      1.1757   
  9.6900e-10      1.1757   
  9.6950e-10      1.1757   
  9.7000e-10      1.1757   
  9.7050e-10      1.1757   
  9.7100e-10      1.1757   
  9.7150e-10      1.1757   
  9.7200e-10      1.1757   
  9.7250e-10      1.1757   
  9.7300e-10      1.1757   
  9.7350e-10      1.1757   
  9.7400e-10      1.1757   
  9.7450e-10      1.1757   
  9.7500e-10      1.1757   
  9.7550e-10      1.1757   
  9.7600e-10      1.1757   
  9.7650e-10      1.1757   
  9.7700e-10      1.1757   
  9.7750e-10      1.1756   
  9.7800e-10      1.1756   
  9.7850e-10      1.1756   
  9.7900e-10      1.1756   
  9.7950e-10      1.1756   
  9.8000e-10      1.1756   
  9.8050e-10      1.1756   
  9.8100e-10      1.1756   
  9.8150e-10      1.1756   
  9.8200e-10      1.1756   
  9.8250e-10      1.1756   
  9.8300e-10      1.1756   
  9.8350e-10      1.1756   
  9.8400e-10      1.1756   
  9.8450e-10      1.1756   
  9.8500e-10      1.1756   
  9.8550e-10      1.1756   
  9.8600e-10      1.1756   
  9.8650e-10      1.1756   
  9.8700e-10      1.1756   
  9.8750e-10      1.1756   
  9.8800e-10      1.1756   
  9.8850e-10      1.1756   
  9.8900e-10      1.1756   
  9.8950e-10      1.1756   
  9.9000e-10      1.1756   
  9.9050e-10      1.1756   
  9.9100e-10      1.1756   
  9.9150e-10      1.1756   
  9.9200e-10      1.1756   
  9.9250e-10      1.1756   
  9.9300e-10      1.1756   
  9.9350e-10      1.1755   
  9.9400e-10      1.1755   
  9.9450e-10      1.1755   
  9.9500e-10      1.1755   
  9.9550e-10      1.1755   
  9.9600e-10      1.1755   
  9.9650e-10      1.1755   
  9.9700e-10      1.1755   
  9.9750e-10      1.1755   
  9.9800e-10      1.1755   
  9.9850e-10      1.1755   
  9.9900e-10      1.1755   
  9.9950e-10      1.1755   
  1.0000e-09      1.1755   
  1.0005e-09      1.1755   
  1.0010e-09      1.1755   
  1.0015e-09      1.1755   
  1.0020e-09      1.1755   
  1.0025e-09      1.1755   
  1.0030e-09      1.1755   
  1.0035e-09      1.1755   
  1.0040e-09      1.1755   
  1.0045e-09      1.1755   
  1.0050e-09      1.1755   
  1.0055e-09      1.1755   
  1.0060e-09      1.1755   
  1.0065e-09      1.1755   
  1.0070e-09      1.1755   
  1.0075e-09      1.1755   
  1.0080e-09      1.1755   
  1.0085e-09      1.1755   
  1.0090e-09      1.1755   
  1.0095e-09      1.1755   
  1.0100e-09      1.1754   
  1.0105e-09      1.1754   
  1.0110e-09      1.1754   
  1.0115e-09      1.1754   
  1.0120e-09      1.1754   
  1.0125e-09      1.1754   
  1.0130e-09      1.1754   
  1.0135e-09      1.1754   
  1.0140e-09      1.1754   
  1.0145e-09      1.1754   
  1.0150e-09      1.1754   
  1.0155e-09      1.1754   
  1.0160e-09      1.1754   
  1.0165e-09      1.1754   
  1.0170e-09      1.1754   
  1.0175e-09      1.1754   
  1.0180e-09      1.1754   
  1.0185e-09      1.1754   
  1.0190e-09      1.1754   
  1.0195e-09      1.1754   
  1.0200e-09      1.1754   
  1.0205e-09      1.1754   
  1.0210e-09      1.1754   
  1.0215e-09      1.1754   
  1.0220e-09      1.1754   
  1.0225e-09      1.1754   
  1.0230e-09      1.1754   
  1.0235e-09      1.1754   
  1.0240e-09      1.1754   
  1.0245e-09      1.1754   
  1.0250e-09      1.1754   
  1.0255e-09      1.1754   
  1.0260e-09      1.1753   
  1.0265e-09      1.1753   
  1.0270e-09      1.1753   
  1.0275e-09      1.1753   
  1.0280e-09      1.1753   
  1.0285e-09      1.1753   
  1.0290e-09      1.1753   
  1.0295e-09      1.1753   
  1.0300e-09      1.1753   
  1.0305e-09      1.1753   
  1.0310e-09      1.1753   
  1.0315e-09      1.1753   
  1.0320e-09      1.1753   
  1.0325e-09      1.1753   
  1.0330e-09      1.1753   
  1.0335e-09      1.1753   
  1.0340e-09      1.1753   
  1.0345e-09      1.1753   
  1.0350e-09      1.1753   
  1.0355e-09      1.1753   
  1.0360e-09      1.1753   
  1.0365e-09      1.1753   
  1.0370e-09      1.1753   
  1.0375e-09      1.1753   
  1.0380e-09      1.1753   
  1.0385e-09      1.1753   
  1.0390e-09      1.1753   
  1.0395e-09      1.1753   
  1.0400e-09      1.1753   
  1.0405e-09      1.1753   
  1.0410e-09      1.1753   
  1.0415e-09      1.1753   
  1.0420e-09      1.1753   
  1.0425e-09      1.1752   
  1.0430e-09      1.1752   
  1.0435e-09      1.1752   
  1.0440e-09      1.1752   
  1.0445e-09      1.1752   
  1.0450e-09      1.1752   
  1.0455e-09      1.1752   
  1.0460e-09      1.1752   
  1.0465e-09      1.1752   
  1.0470e-09      1.1752   
  1.0475e-09      1.1752   
  1.0480e-09      1.1752   
  1.0485e-09      1.1752   
  1.0490e-09      1.1752   
  1.0495e-09      1.1752   
  1.0500e-09      1.1752   
  1.0505e-09      1.1752   
  1.0510e-09      1.1752   
  1.0515e-09      1.1752   
  1.0520e-09      1.1752   
  1.0525e-09      1.1752   
  1.0530e-09      1.1752   
  1.0535e-09      1.1752   
  1.0540e-09      1.1752   
  1.0545e-09      1.1752   
  1.0550e-09      1.1752   
  1.0555e-09      1.1752   
  1.0560e-09      1.1752   
  1.0565e-09      1.1752   
  1.0570e-09      1.1752   
  1.0575e-09      1.1752   
  1.0580e-09      1.1752   
  1.0585e-09      1.1751   
  1.0590e-09      1.1751   
  1.0595e-09      1.1751   
  1.0600e-09      1.1751   
  1.0605e-09      1.1751   
  1.0610e-09      1.1751   
  1.0615e-09      1.1751   
  1.0620e-09      1.1751   
  1.0625e-09      1.1751   
  1.0630e-09      1.1751   
  1.0635e-09      1.1751   
  1.0640e-09      1.1751   
  1.0645e-09      1.1751   
  1.0650e-09      1.1751   
  1.0655e-09      1.1751   
  1.0660e-09      1.1751   
  1.0665e-09      1.1751   
  1.0670e-09      1.1751   
  1.0675e-09      1.1751   
  1.0680e-09      1.1751   
  1.0685e-09      1.1751   
  1.0690e-09      1.1751   
  1.0695e-09      1.1751   
  1.0700e-09      1.1751   
  1.0705e-09      1.1751   
  1.0710e-09      1.1751   
  1.0715e-09      1.1751   
  1.0720e-09      1.1751   
  1.0725e-09      1.1751   
  1.0730e-09      1.1751   
  1.0735e-09      1.1751   
  1.0740e-09      1.1751   
  1.0745e-09      1.1751   
  1.0750e-09      1.1750   
  1.0755e-09      1.1750   
  1.0760e-09      1.1750   
  1.0765e-09      1.1750   
  1.0770e-09      1.1750   
  1.0775e-09      1.1750   
  1.0780e-09      1.1750   
  1.0785e-09      1.1750   
  1.0790e-09      1.1750   
  1.0795e-09      1.1750   
  1.0800e-09      1.1750   
  1.0805e-09      1.1750   
  1.0810e-09      1.1750   
  1.0815e-09      1.1750   
  1.0820e-09      1.1750   
  1.0825e-09      1.1750   
  1.0830e-09      1.1750   
  1.0835e-09      1.1750   
  1.0840e-09      1.1750   
  1.0845e-09      1.1750   
  1.0850e-09      1.1750   
  1.0855e-09      1.1750   
  1.0860e-09      1.1750   
  1.0865e-09      1.1750   
  1.0870e-09      1.1750   
  1.0875e-09      1.1750   
  1.0880e-09      1.1750   
  1.0885e-09      1.1750   
  1.0890e-09      1.1750   
  1.0895e-09      1.1750   
  1.0900e-09      1.1750   
  1.0905e-09      1.1750   
  1.0910e-09      1.1749   
  1.0915e-09      1.1749   
  1.0920e-09      1.1749   
  1.0925e-09      1.1749   
  1.0930e-09      1.1749   
  1.0935e-09      1.1749   
  1.0940e-09      1.1749   
  1.0945e-09      1.1749   
  1.0950e-09      1.1749   
  1.0955e-09      1.1749   
  1.0960e-09      1.1749   
  1.0965e-09      1.1749   
  1.0970e-09      1.1749   
  1.0975e-09      1.1749   
  1.0980e-09      1.1749   
  1.0985e-09      1.1749   
  1.0990e-09      1.1749   
  1.0995e-09      1.1749   
  1.1000e-09      1.1749   
  1.1005e-09      1.1749   
  1.1010e-09      1.1749   
  1.1015e-09      1.1749   
  1.1020e-09      1.1749   
  1.1025e-09      1.1749   
  1.1030e-09      1.1749   
  1.1035e-09      1.1749   
  1.1040e-09      1.1749   
  1.1045e-09      1.1749   
  1.1050e-09      1.1749   
  1.1055e-09      1.1749   
  1.1060e-09      1.1749   
  1.1065e-09      1.1749   
  1.1070e-09      1.1749   
  1.1075e-09      1.1748   
  1.1080e-09      1.1748   
  1.1085e-09      1.1748   
  1.1090e-09      1.1748   
  1.1095e-09      1.1748   
  1.1100e-09      1.1748   
  1.1105e-09      1.1748   
  1.1110e-09      1.1748   
  1.1115e-09      1.1748   
  1.1120e-09      1.1748   
  1.1125e-09      1.1748   
  1.1130e-09      1.1748   
  1.1135e-09      1.1748   
  1.1140e-09      1.1748   
  1.1145e-09      1.1748   
  1.1150e-09      1.1748   
  1.1155e-09      1.1748   
  1.1160e-09      1.1748   
  1.1165e-09      1.1748   
  1.1170e-09      1.1748   
  1.1175e-09      1.1748   
  1.1180e-09      1.1748   
  1.1185e-09      1.1748   
  1.1190e-09      1.1748   
  1.1195e-09      1.1748   
  1.1200e-09      1.1748   
  1.1205e-09      1.1748   
  1.1210e-09      1.1748   
  1.1215e-09      1.1748   
  1.1220e-09      1.1748   
  1.1225e-09      1.1748   
  1.1230e-09      1.1748   
  1.1235e-09      1.1748   
  1.1240e-09      1.1747   
  1.1245e-09      1.1747   
  1.1250e-09      1.1747   
  1.1255e-09      1.1747   
  1.1260e-09      1.1747   
  1.1265e-09      1.1747   
  1.1270e-09      1.1747   
  1.1275e-09      1.1747   
  1.1280e-09      1.1747   
  1.1285e-09      1.1747   
  1.1290e-09      1.1747   
  1.1295e-09      1.1747   
  1.1300e-09      1.1747   
  1.1305e-09      1.1747   
  1.1310e-09      1.1747   
  1.1315e-09      1.1747   
  1.1320e-09      1.1747   
  1.1325e-09      1.1747   
  1.1330e-09      1.1747   
  1.1335e-09      1.1747   
  1.1340e-09      1.1747   
  1.1345e-09      1.1747   
  1.1350e-09      1.1747   
  1.1355e-09      1.1747   
  1.1360e-09      1.1747   
  1.1365e-09      1.1747   
  1.1370e-09      1.1747   
  1.1375e-09      1.1747   
  1.1380e-09      1.1747   
  1.1385e-09      1.1747   
  1.1390e-09      1.1747   
  1.1395e-09      1.1747   
  1.1400e-09      1.1746   
  1.1405e-09      1.1746   
  1.1410e-09      1.1746   
  1.1415e-09      1.1746   
  1.1420e-09      1.1746   
  1.1425e-09      1.1746   
  1.1430e-09      1.1746   
  1.1435e-09      1.1746   
  1.1440e-09      1.1746   
  1.1445e-09      1.1746   
  1.1450e-09      1.1746   
  1.1455e-09      1.1746   
  1.1460e-09      1.1746   
  1.1465e-09      1.1746   
  1.1470e-09      1.1746   
  1.1475e-09      1.1746   
  1.1480e-09      1.1746   
  1.1485e-09      1.1746   
  1.1490e-09      1.1746   
  1.1495e-09      1.1746   
  1.1500e-09      1.1746   
  1.1505e-09      1.1746   
  1.1510e-09      1.1746   
  1.1515e-09      1.1746   
  1.1520e-09      1.1746   
  1.1525e-09      1.1746   
  1.1530e-09      1.1746   
  1.1535e-09      1.1746   
  1.1540e-09      1.1746   
  1.1545e-09      1.1746   
  1.1550e-09      1.1746   
  1.1555e-09      1.1746   
  1.1560e-09      1.1746   
  1.1565e-09      1.1745   
  1.1570e-09      1.1745   
  1.1575e-09      1.1745   
  1.1580e-09      1.1745   
  1.1585e-09      1.1745   
  1.1590e-09      1.1745   
  1.1595e-09      1.1745   
  1.1600e-09      1.1745   
  1.1605e-09      1.1745   
  1.1610e-09      1.1745   
  1.1615e-09      1.1745   
  1.1620e-09      1.1745   
  1.1625e-09      1.1745   
  1.1630e-09      1.1745   
  1.1635e-09      1.1745   
  1.1640e-09      1.1745   
  1.1645e-09      1.1745   
  1.1650e-09      1.1745   
  1.1655e-09      1.1745   
  1.1660e-09      1.1745   
  1.1665e-09      1.1745   
  1.1670e-09      1.1745   
  1.1675e-09      1.1745   
  1.1680e-09      1.1745   
  1.1685e-09      1.1745   
  1.1690e-09      1.1745   
  1.1695e-09      1.1745   
  1.1700e-09      1.1745   
  1.1705e-09      1.1745   
  1.1710e-09      1.1745   
  1.1715e-09      1.1745   
  1.1720e-09      1.1745   
  1.1725e-09      1.1745   
  1.1730e-09      1.1744   
  1.1735e-09      1.1744   
  1.1740e-09      1.1744   
  1.1745e-09      1.1744   
  1.1750e-09      1.1744   
  1.1755e-09      1.1744   
  1.1760e-09      1.1744   
  1.1765e-09      1.1744   
  1.1770e-09      1.1744   
  1.1775e-09      1.1744   
  1.1780e-09      1.1744   
  1.1785e-09      1.1744   
  1.1790e-09      1.1744   
  1.1795e-09      1.1744   
  1.1800e-09      1.1744   
  1.1805e-09      1.1744   
  1.1810e-09      1.1744   
  1.1815e-09      1.1744   
  1.1820e-09      1.1744   
  1.1825e-09      1.1744   
  1.1830e-09      1.1744   
  1.1835e-09      1.1744   
  1.1840e-09      1.1744   
  1.1845e-09      1.1744   
  1.1850e-09      1.1744   
  1.1855e-09      1.1744   
  1.1860e-09      1.1744   
  1.1865e-09      1.1744   
  1.1870e-09      1.1744   
  1.1875e-09      1.1744   
  1.1880e-09      1.1744   
  1.1885e-09      1.1744   
  1.1890e-09      1.1744   
  1.1895e-09      1.1743   
  1.1900e-09      1.1743   
  1.1905e-09      1.1743   
  1.1910e-09      1.1743   
  1.1915e-09      1.1743   
  1.1920e-09      1.1743   
  1.1925e-09      1.1743   
  1.1930e-09      1.1743   
  1.1935e-09      1.1743   
  1.1940e-09      1.1743   
  1.1945e-09      1.1743   
  1.1950e-09      1.1743   
  1.1955e-09      1.1743   
  1.1960e-09      1.1743   
  1.1965e-09      1.1743   
  1.1970e-09      1.1743   
  1.1975e-09      1.1743   
  1.1980e-09      1.1743   
  1.1985e-09      1.1743   
  1.1990e-09      1.1743   
  1.1995e-09      1.1743   
  1.2000e-09      1.1743   
y

          ***** job concluded
1****** HSPICE -- F-2011.09 32-BIT (Sep  5 2011) linux ******                   
 ******  
 case 25:

  ******  job statistics summary tnom=  25.000 temp=  25.000 *****
  
  
 ******  Machine Information  ******
 CPU:
 model name	: Intel(R) Xeon(R) CPU           E5520  @ 2.27GHz
 cpu MHz	: 2260.871
  
 OS:
 Linux version 3.16.0-4-amd64 (debian-kernel@lists.debian.org) (gcc version 4.8.
 4 (Debian 4.8.4-1) ) #1 SMP Debian 3.16.7-ckt9-3~deb8u1 (2015-04-24)


  ******  HSPICE Threads Information  ******

  Command Line Threads Count :     1
  Available CPU Count        :    16
  Actual Threads Count       :     1


  ******  Circuit Statistics  ******
  # nodes       =      15 # elements   =      26
  # resistors   =       0 # capacitors =       0 # inductors   =       0
  # mutual_inds =       0 # vccs       =       0 # vcvs        =       0
  # cccs        =       0 # ccvs       =       0 # volt_srcs   =       4
  # curr_srcs   =       2 # diodes     =       0 # bjts        =       0
  # jfets       =       0 # mosfets    =      20 # U elements  =       0
  # T elements  =       0 # W elements =       0 # B elements  =       0
  # S elements  =       0 # P elements =       0 # va device   =       0
  # vector_srcs =       0


  ******  Runtime Statistics (seconds)  ******

  analysis           time    # points   tot. iter  conv.iter
  op point           0.01           1          10
  transient          0.29        2400        9604        4802 rev=         1
  readin             0.03
  errchk             0.00
  setup              2.04
  output             0.01


           peak memory used         86.18 megabytes
           total cpu time            3.19 seconds
           total elapsed time        3.19 seconds
           job started at     20:09:37 12/18/2015
           job ended   at     20:09:49 12/18/2015


 lic: Release hspice token(s) 
