Using: /usr/bin/time -p /synopsys/HSPICE/hspice/linux/hspice singleapprox.sp
 ****** HSPICE -- F-2011.09 32-BIT (Sep  5 2011) linux ******                   
  Copyright (C) 2011 Synopsys, Inc. All Rights Reserved.                        
  Unpublished-rights reserved under US copyright laws.
  This program is protected by law and is subject to the
  terms and conditions of the license agreement from Synopsys.
  Use of this program is your acceptance to be bound by the
  license agreement. HSPICE is the trademark of Synopsys, Inc.
  Input File: singleapprox.sp                                                   
  Command line options: singleapprox.sp
 lic: No 'setenv LM_LICENSE_FILE' in current environment' 
 lic:  
 lic: FLEXlm: v10.8 
 lic: USER:   watkins              HOSTNAME: engr-e132-d10 
 lic: HOSTID: 002564bd04da         PID:      12404 
 lic: Using FLEXlm license file: 
 lic: 28000@131.230.191.194 
 lic: Checkout 1 hspice 
 lic: License/Maintenance for hspice will expire on 30-dec-2015/2015.06 
 lic: 1(in_use)/50(total) FLOATING license(s) on SERVER 131.230.191.194 
 lic:   
 Init: read install configuration file: /synopsys/HSPICE/hspice/meta.cfg
 (singleapprox.sp:93)
 **warning** unknown command ".$print" is ignored
 (singleapprox.sp:101)
 **warning**  unknown command name is ignored
1****** HSPICE -- F-2011.09 32-BIT (Sep  5 2011) linux ******                   
 ******  
 

  ******  circuit name directory
 circuit number to circuit name directory
   number circuitname                     definition         multiplier
        0 main circuit
        1 xand1.                          nand2inp           1.00 
        2 xand2.                          nand2inp           1.00 
        3 xand8.                          nand2inp           1.00 
        4 xand9.                          nand2inp           1.00 
1****** HSPICE -- F-2011.09 32-BIT (Sep  5 2011) linux ******                   
 ******  
 

  ******  mos   model parameters tnom=  25.000 temp=  25.000 *****
 Model Name: cmosn  
 BSIM4 Model (Level 54)
    MOBMOD = 2
    BINUNIT = 1
    PARAMCHK = 1
    CAPMOD = 2
    DIOMOD = 1
    RDSMOD = 0
    TRNQSMOD = 0
    ACNQSMOD = 0
    RBODYMOD = 0
    RGATEMOD = 0
    PERMOD = 1
    GEOMOD = 0
    RGEOMOD = 0
    FNOIMOD = 1
    TNOIMOD = 0
    IGCMOD = 0
    IGBMOD = 0
    STIMOD = 1
    VBFWDMOD = 0
    VERSION =    4.3 
    TOXREF =  3e-09 
    TOXE = 2.6e-09 
    TOXP = 2.6e-09 
    TOXM = 2.6e-09 
    DTOX =      0 
    EPSROX =    3.9 
    CDSC = 0.00024 
    CDSCB =      0 
    CDSCD =      0 
    CIT =      0 
    NFACTOR =  1.475 
    XJ = 1.5e-07 
    VSAT = 6.639e+04 
    A0 =      2 
    AGS = 0.00791 
    A1 =      0 
    A2 =      1 
    AT = 3.3e+04 
    KETA = -0.05342 
    NSUB =  6e+16 
    NDEP = 1.7e+17 
    NSD =  1e+20 
    NGATE =  3e+20 
    GAMMA1 =      0 
    GAMMA2 =      0 
    VBX =      0 
    VBM =     -3 
    XT = 1.55e-07 
    K1 = 0.5257 
    KT1 =  -0.11 
    KT1L =      0 
    KT2 =  0.022 
    K2 = -0.07588 
    K3 =  36.32 
    K3B =  4.814 
    LPE0 = 6.27e-08 
    LPEB = -1.6e-09 
    DVTP0 =      0 
    DVTP1 =      0 
    W0 = 3.795e-07 
    DVT0 = 0.02396 
    DVT1 = 0.06928 
    DVT2 = -4.934e-05 
    DVT0W =      0 
    DVT1W =      0 
    DVT2W = -0.032 
    DROUT =  0.518 
    DSUB = 0.1711 
    VTH0 = 0.4781 
    EU =      0 
    UA =  1e-11 
    UA1 =  1e-09 
    UB = 3.627e-18 
    UB1 = -1e-18 
    UC = -7.217e-12 
    UC1 = -5.6e-11 
    U0 =  239.8 
    UTE =   -1.5 
    VOFF = -0.1263 
    VOFFL =      0 
    MINV =      0 
    FPROUT = 1.132e-05 
    PDITS =      0 
    PDITSD =      0 
    PDITSL =      0 
    DELTA = 0.01229 
    RDSW =  244.7 
    RDSWMIN =    100 
    RDWMIN =      0 
    RSWMIN =      0 
    RDW =    100 
    RSW =    100 
    PRWG = 0.9953 
    PRWB = 0.005432 
    PRT =      0 
    ETA0 = 0.00987 
    ETAB = -0.001757 
    PCLM = 0.4956 
    PDIBLC1 = 0.001338 
    PDIBLC2 = 0.00967 
    PDIBLCB = -0.001 
    PSCBE1 = 7.99e+08 
    PSCBE2 = 3.002e-06 
    PVAG =      0 
    WR =      1 
    DWG = -1.557e-08 
    DWB = -3.819e-09 
    XW =      0 
    XWREF =      0 
    XL =      0 
    XLREF =      0 
    B0 = -1.514e-07 
    B1 = 7.886e-08 
    ALPHA0 =      0 
    ALPHA1 =      0 
    AGIDL =      0 
    BGIDL = 2.3e+09 
    CGIDL =    0.5 
    PHIN =      0 
    EGIDL =    0.8 
    AIGC =   0.43 
    BIGC =  0.054 
    CIGC =  0.075 
    AIGSD =   0.43 
    BIGSD =  0.054 
    CIGSD =  0.075 
    AIGBACC =   0.43 
    BIGBACC =  0.054 
    CIGBACC =  0.075 
    AIGBINV =   0.35 
    BIGBINV =   0.03 
    CIGBINV =  0.006 
    NIGC =      1 
    NIGBINV =      3 
    NIGBACC =      1 
    NTOX =      1 
    EIGBINV =    1.1 
    PIGCD =      1 
    POXEDGE =      1 
    XRCRG1 =     12 
    TNOIA =    1.5 
    TNOIB =    3.5 
    NTNOI =      1 
    XRCRG2 =      1 
    BETA0 =     30 
    IJTHDFWD =    0.1 
    IJTHSFWD =    0.1 
    IJTHDREV =    0.1 
    IJTHSREV =    0.1 
    XJBVD =      1 
    XJBVS =      1 
    BVD =     10 
    BVS =     10 
    VFB =     -1 
    GBMIN =  1e-12 
    RBDB =     50 
    RBPB =     50 
    RBSB =     50 
    RBPS =     50 
    RBPD =     50 
    CGSL =      0 
    CGDL =      0 
    CKAPPAS =    0.6 
    CKAPPAD =    0.6 
    CF =      0 
    CLC =  1e-07 
    CLE =    0.6 
    DWC = 9.426e-14 
    DLC = 3.321e-14 
    DLCIG = 3.321e-14 
    DWJ = 9.426e-14 
    VFBCV =     -1 
    ACDE =      1 
    MOIN =     15 
    NOFF =      1 
    VOFFCV =      0 
    DMCG =      0 
    DMCI =      0 
    DMDG =      0 
    DMCGT =      0 
    XGW =      0 
    XGL =      0 
    RSHG =    0.1 
    NGCON =      1 
    TCJ =      0 
    TPB =      0 
    TCJSW =      0 
    TPBSW =      0 
    TCJSWG =      0 
    TPBSWG =      0 
    SK0 =      0 
    SK1 =      0 
    SK2 =      0 
    SL =  2e-06 
    SW =  2e-06 
    K =      0 
    LKETA = 0.01531 
    WKETA = 0.01061 
    PVSAT =   -196 
    PKETA = 0.00126 
    PK2 =  1e-05 
    PVTH0 = 0.0001 
    PUA =  1e-22 
    PUB = 9.998e-24 
    PU0 = -0.005 
    PRDSW =  3.872 
    PETA0 = 2.539e-05 
    TNOM =  300.1 
    CGSO =  1e-10 
    CGDO =  1e-10 
    CGBO =  1e-12 
    XPART =    0.5 
    RSH =   12.2 
    JSS = 0.0001 
    JSWS =      0 
    JSWGS =      0 
    PBS =      1 
    MJS =    0.9 
    PBSWS =      1 
    MJSWS =   0.55 
    CJS = 0.0001 
    CJSWS =  1e-10 
    NJS =      1 
    PBSWGS =      1 
    MJSWGS =   0.33 
    CJSWGS =  5e-10 
    XTIS =      3 
    JSD = 0.0001 
    JSWD =      0 
    JSWGD =      0 
    PBD =      1 
    MJD =    0.9 
    PBSWD =      1 
    MJSWD =   0.55 
    CJD = 0.0001 
    CJSWD =  1e-10 
    NJD =      1 
    PBSWGD =      1 
    MJSWGD =   0.33 
    CJSWGD =  5e-10 
    XTID =      3 
    LMLT =      1 
    WMLT =      1 
    LINT = 3.321e-14 
    LL =      0 
    LLC =      0 
    LLN =      1 
    LW =      0 
    LWC =      0 
    LWN =      1 
    LWL =      0 
    LWLC =      0 
    LMIN =      0 
    LMAX =      1 
    WINT = 9.426e-14 
    WL =      0 
    WLC =      0 
    WLN =      1 
    WW =      0 
    WWC =      0 
    WWN =      1 
    WWL =      0 
    WWLC =      0 
    WMIN =      0 
    WMAX =      1 
    NOIA = 6.25e+41 
    NOIB = 3.125e+26 
    NOIC = 8.75e+09 
    EM = 4.1e+07 
    EF =      1 
    AF =      1 
    KF =      0 
    TRS =      0 
    TRD =      0 
    TEMPMOD  =      0 
    LAMBDA   =      0 
    VTL      =  2e+05 m/s
    LC       =  5e-09 
    XN       =      3 
    LLAMBDA  =      0 
    LVTL     =      0 
    LXN      =      0 
    WLAMBDA  =      0 
    WVTL     =      0 
    WXN      =      0 
    PLAMBDA  =      0 
    PVTL     =      0 
    PXN      =      0 
    RNOIA    =  0.577 
    RNOIB    =   0.37 
    SAREF(SA0) =  1e-06 m
    SBREF(SB0) =  1e-06 m
    WLOD     =      0 m
    KU0      =      0 1/m
    KVSAT    =      0 
    KVTH0    =      0 m
    TKU0     =      0 
    LLODKU0  =      0 
    WLODKU0  =      0 
    LLODVTH  =      0 
    WLODVTH  =      0 
    LKU0     =      0 
    WKU0     =      0 
    PKU0     =      0 
    LKVTH0   =      0 
    WKVTH0   =      0 
    PKVTH0   =      0 
    STK2     =      0 
    LODK2    =      1 
    STETA0   =      0 
    LODETA0  =      1 
    LXRCRG1  =      0 
    WXRCRG1  =      0 
    PXRCRG1  =      0 
    LXRCRG2  =      0 
    WXRCRG2  =      0 
    PXRCRG2  =      0 
 Model Name: cmosp  
 BSIM4 Model (Level 54)
    MOBMOD = 2
    BINUNIT = 1
    PARAMCHK = 1
    CAPMOD = 2
    DIOMOD = 1
    RDSMOD = 0
    TRNQSMOD = 0
    ACNQSMOD = 0
    RBODYMOD = 0
    RGATEMOD = 0
    PERMOD = 1
    GEOMOD = 0
    RGEOMOD = 0
    FNOIMOD = 1
    TNOIMOD = 0
    IGCMOD = 0
    IGBMOD = 0
    STIMOD = 1
    VBFWDMOD = 0
    VERSION =    4.3 
    TOXREF =  3e-09 
    TOXE = 2.6e-09 
    TOXP = 2.6e-09 
    TOXM = 2.6e-09 
    DTOX =      0 
    EPSROX =    3.9 
    CDSC = 0.00024 
    CDSCB =      0 
    CDSCD =      0 
    CIT =      0 
    NFACTOR =      0 
    XJ = 1.5e-07 
    VSAT = 3.73e+04 
    A0 =      2 
    AGS =  1.009 
    A1 =      0 
    A2 =      1 
    AT = 3.3e+04 
    KETA =   0.05 
    NSUB =  6e+16 
    NDEP = 1.7e+17 
    NSD =  1e+20 
    NGATE =  1e+20 
    GAMMA1 =      0 
    GAMMA2 =      0 
    VBX =      0 
    VBM =     -3 
    XT = 1.55e-07 
    K1 = 0.9928 
    KT1 =  -0.11 
    KT1L =      0 
    KT2 =  0.022 
    K2 = -0.3381 
    K3 = 0.001001 
    K3B =     10 
    LPE0 = 2.609e-08 
    LPEB = -1.076e-08 
    DVTP0 =      0 
    DVTP1 =      0 
    W0 = 4.771e-05 
    DVT0 = 0.01395 
    DVT1 = 0.0664 
    DVT2 = -0.004296 
    DVT0W =      0 
    DVT1W =      0 
    DVT2W = -0.032 
    DROUT = 0.8684 
    DSUB = 0.1863 
    VTH0 = -0.2315 
    EU = 0.8596 
    UA = 1.391e-09 
    UA1 =  1e-09 
    UB = 1.039e-23 
    UB1 = -1e-18 
    UC = 2.79e-11 
    UC1 = -5.6e-11 
    U0 =     70 
    UTE =   -1.5 
    VOFF = -0.001909 
    VOFFL =      0 
    MINV =      0 
    FPROUT = 7.988e-06 
    PDITS =      0 
    PDITSD =      0 
    PDITSL =      0 
    DELTA = 0.004624 
    RDSW =   1125 
    RDSWMIN =    100 
    RDWMIN =      0 
    RSWMIN =      0 
    RDW =    100 
    RSW =    100 
    PRWG =    0.1 
    PRWB =    0.1 
    PRT =      0 
    ETA0 = 0.00256 
    ETAB =      0 
    PCLM =  1.006 
    PDIBLC1 = 0.2995 
    PDIBLC2 =   0.01 
    PDIBLCB =      0 
    PSCBE1 =  8e+08 
    PSCBE2 = 3.027e-06 
    PVAG = 0.04381 
    WR =      1 
    DWG = -1.561e-10 
    DWB = -1.169e-08 
    XW =      0 
    XWREF =      0 
    XL =      0 
    XLREF =      0 
    B0 =      0 
    B1 = 1.072e-10 
    ALPHA0 =      0 
    ALPHA1 =      0 
    AGIDL =      0 
    BGIDL = 2.3e+09 
    CGIDL =    0.5 
    PHIN =      0 
    EGIDL =    0.8 
    AIGC =   0.31 
    BIGC =  0.024 
    CIGC =   0.03 
    AIGSD =   0.31 
    BIGSD =  0.024 
    CIGSD =   0.03 
    AIGBACC =   0.43 
    BIGBACC =  0.054 
    CIGBACC =  0.075 
    AIGBINV =   0.35 
    BIGBINV =   0.03 
    CIGBINV =  0.006 
    NIGC =      1 
    NIGBINV =      3 
    NIGBACC =      1 
    NTOX =      1 
    EIGBINV =    1.1 
    PIGCD =      1 
    POXEDGE =      1 
    XRCRG1 =     12 
    TNOIA =    1.5 
    TNOIB =    3.5 
    NTNOI =      1 
    XRCRG2 =      1 
    BETA0 =     30 
    IJTHDFWD =    0.1 
    IJTHSFWD =    0.1 
    IJTHDREV =    0.1 
    IJTHSREV =    0.1 
    XJBVD =      1 
    XJBVS =      1 
    BVD =     10 
    BVS =     10 
    VFB =     -1 
    GBMIN =  1e-12 
    RBDB =     50 
    RBPB =     50 
    RBSB =     50 
    RBPS =     50 
    RBPD =     50 
    CGSL =      0 
    CGDL =      0 
    CKAPPAS =    0.6 
    CKAPPAD =    0.6 
    CF =      0 
    CLC =  1e-07 
    CLE =    0.6 
    DWC =      0 
    DLC =      0 
    DLCIG =      0 
    DWJ =      0 
    VFBCV =     -1 
    ACDE =      1 
    MOIN =     15 
    NOFF =      1 
    VOFFCV =      0 
    DMCG =      0 
    DMCI =      0 
    DMDG =      0 
    DMCGT =      0 
    XGW =      0 
    XGL =      0 
    RSHG =    0.1 
    NGCON =      1 
    TCJ =      0 
    TPB =      0 
    TCJSW =      0 
    TPBSW =      0 
    TCJSWG =      0 
    TPBSWG =      0 
    SK0 =      0 
    SK1 =      0 
    SK2 =      0 
    SL =  2e-06 
    SW =  2e-06 
    K =      0 
    LKETA = 0.03755 
    WKETA =   -0.1 
    PVSAT =  354.9 
    PKETA = 0.003168 
    PK2 = -0.0002836 
    PVTH0 = -2.202e-05 
    PUA = 9.42e-22 
    PUB = 7.851e-22 
    PU0 = 0.2492 
    PRDSW =  0.044 
    TNOM =  300.1 
    CGSO =  1e-10 
    CGDO =  1e-10 
    CGBO =  1e-12 
    XPART =    0.5 
    RSH =   11.3 
    JSS = 0.0001 
    JSWS =      0 
    JSWGS =      0 
    PBS =      1 
    MJS =    0.1 
    PBSWS =      1 
    MJSWS =    0.5 
    CJS = 0.00014 
    CJSWS =  1e-10 
    NJS =      1 
    PBSWGS =      1 
    MJSWGS =   0.33 
    CJSWGS =  5e-10 
    XTIS =      3 
    JSD = 0.0001 
    JSWD =      0 
    JSWGD =      0 
    PBD =      1 
    MJD =    0.1 
    PBSWD =      1 
    MJSWD =    0.5 
    CJD = 0.00014 
    CJSWD =  1e-10 
    NJD =      1 
    PBSWGD =      1 
    MJSWGD =   0.33 
    CJSWGD =  5e-10 
    XTID =      3 
    LMLT =      1 
    WMLT =      1 
    LINT =      0 
    LL =      0 
    LLC =      0 
    LLN =      1 
    LW =      0 
    LWC =      0 
    LWN =      1 
    LWL =      0 
    LWLC =      0 
    LMIN =      0 
    LMAX =      1 
    WINT =      0 
    WL =      0 
    WLC =      0 
    WLN =      1 
    WW =      0 
    WWC =      0 
    WWN =      1 
    WWL =      0 
    WWLC =      0 
    WMIN =      0 
    WMAX =      1 
    NOIA = 6.188e+40 
    NOIB = 1.5e+25 
    NOIC = 8.75e+09 
    EM = 4.1e+07 
    EF =      1 
    AF =      1 
    KF =      0 
    TRS =      0 
    TRD =      0 
    TEMPMOD  =      0 
    LAMBDA   =      0 
    VTL      =  2e+05 m/s
    LC       =  5e-09 
    XN       =      3 
    LLAMBDA  =      0 
    LVTL     =      0 
    LXN      =      0 
    WLAMBDA  =      0 
    WVTL     =      0 
    WXN      =      0 
    PLAMBDA  =      0 
    PVTL     =      0 
    PXN      =      0 
    RNOIA    =  0.577 
    RNOIB    =   0.37 
    SAREF(SA0) =  1e-06 m
    SBREF(SB0) =  1e-06 m
    WLOD     =      0 m
    KU0      =      0 1/m
    KVSAT    =      0 
    KVTH0    =      0 m
    TKU0     =      0 
    LLODKU0  =      0 
    WLODKU0  =      0 
    LLODVTH  =      0 
    WLODVTH  =      0 
    LKU0     =      0 
    WKU0     =      0 
    PKU0     =      0 
    LKVTH0   =      0 
    WKVTH0   =      0 
    PKVTH0   =      0 
    STK2     =      0 
    LODK2    =      1 
    STETA0   =      0 
    LODETA0  =      1 
    LXRCRG1  =      0 
    WXRCRG1  =      0 
    PXRCRG1  =      0 
    LXRCRG2  =      0 
    WXRCRG2  =      0 
    PXRCRG2  =      0 
  **info** (singleapprox.sp:25) DC voltage reset to initial transient source value              in source        0:iup                 new dc=  0.0000D+00
  
      
 **info** set option symb=1 internally to help for convergence.
 *****************************************************************
 ******  option summary
 ******
 runlvl  = 3         bypass  = 2         
  Opening plot unit= 15
 file=singleapprox.pa0                                                         

1****** HSPICE -- F-2011.09 32-BIT (Sep  5 2011) linux ******                   
 ******  
 

  ******  operating point information tnom=  25.000 temp=  25.000 *****
 ***** operating point status is voltage   simulation time is     0.     
    node    =voltage      node    =voltage      node    =voltage

 +0:a       =   0.      0:b       =   1.0500  0:c       =   0.     
 +0:cn1     = 7.546e-02 0:cn2     = 1.963e-09 0:p10     =   1.0500 
 +0:p11     = 4.591e-06 0:p12     = 4.591e-06 0:p13     =   1.0500 
 +0:p9      =   1.0500  0:vdd     =   1.0500  1:cn1     = 2.202e-08
 +2:cn1     = 2.296e-06 3:cn1     = 2.202e-08 4:cn1     = 2.296e-06


 maximum nodal capacitance=   5.377E-15         on node     0:vdd             

    nodal  capacitance table 

    node    =    cap      node    =    cap      node    =    cap

 +0:a       = 2.469e-16 0:b       = 1.013e-15 0:c       = 2.469e-16
 +0:cn1     = 1.642e-16 0:cn2     = 2.080e-16 0:p10     = 7.100e-16
 +0:p11     = 6.418e-16 0:p12     = 6.418e-16 0:p13     = 7.794e-16
 +0:p9      = 7.100e-16 0:vdd     = 5.377e-15 1:cn1     = 2.080e-16
 +2:cn1     = 2.122e-16 3:cn1     = 2.080e-16 4:cn1     = 2.122e-16

 
 ******  
 

  ******  transient analysis tnom=  25.000 temp=  25.000 *****

   *** data name = setsrce  1st sweep ***

x

        time    current      current    
                    iup         iup2    
    0.            0.           0.       
  5.0000e-13      0.           0.       
  1.0000e-12      0.           0.       
  1.5000e-12      0.           0.       
  2.0000e-12      0.           0.       
  2.5000e-12      0.           0.       
  3.0000e-12      0.           0.       
  3.5000e-12      0.           0.       
  4.0000e-12      0.           0.       
  4.5000e-12      0.           0.       
  5.0000e-12      0.           0.       
  5.5000e-12      0.           0.       
  6.0000e-12      0.           0.       
  6.5000e-12      0.           0.       
  7.0000e-12      0.           0.       
  7.5000e-12      0.           0.       
  8.0000e-12      0.           0.       
  8.5000e-12      0.           0.       
  9.0000e-12      0.           0.       
  9.5000e-12      0.           0.       
  1.0000e-11      0.           0.       
  1.0500e-11      0.           0.       
  1.1000e-11      0.           0.       
  1.1500e-11      0.           0.       
  1.2000e-11      0.           0.       
  1.2500e-11      0.           0.       
  1.3000e-11      0.           0.       
  1.3500e-11      0.           0.       
  1.4000e-11      0.           0.       
  1.4500e-11      0.           0.       
  1.5000e-11      0.           0.       
  1.5500e-11      0.           0.       
  1.6000e-11      0.           0.       
  1.6500e-11      0.           0.       
  1.7000e-11      0.           0.       
  1.7500e-11      0.           0.       
  1.8000e-11      0.           0.       
  1.8500e-11      0.           0.       
  1.9000e-11      0.           0.       
  1.9500e-11      0.           0.       
  2.0000e-11      0.           0.       
  2.0500e-11      0.           0.       
  2.1000e-11      0.           0.       
  2.1500e-11      0.           0.       
  2.2000e-11      0.           0.       
  2.2500e-11      0.           0.       
  2.3000e-11      0.           0.       
  2.3500e-11      0.           0.       
  2.4000e-11      0.           0.       
  2.4500e-11      0.           0.       
  2.5000e-11      0.           0.       
  2.5500e-11      0.           0.       
  2.6000e-11      0.           0.       
  2.6500e-11      0.           0.       
  2.7000e-11      0.           0.       
  2.7500e-11      0.           0.       
  2.8000e-11      0.           0.       
  2.8500e-11      0.           0.       
  2.9000e-11      0.           0.       
  2.9500e-11      0.           0.       
  3.0000e-11      0.           0.       
  3.0500e-11      0.           0.       
  3.1000e-11      0.           0.       
  3.1500e-11      0.           0.       
  3.2000e-11      0.           0.       
  3.2500e-11      0.           0.       
  3.3000e-11      0.           0.       
  3.3500e-11      0.           0.       
  3.4000e-11      0.           0.       
  3.4500e-11      0.           0.       
  3.5000e-11      0.           0.       
  3.5500e-11      0.           0.       
  3.6000e-11      0.           0.       
  3.6500e-11      0.           0.       
  3.7000e-11      0.           0.       
  3.7500e-11      0.           0.       
  3.8000e-11      0.           0.       
  3.8500e-11      0.           0.       
  3.9000e-11      0.           0.       
  3.9500e-11      0.           0.       
  4.0000e-11      0.           0.       
  4.0500e-11      0.           0.       
  4.1000e-11      0.           0.       
  4.1500e-11      0.           0.       
  4.2000e-11      0.           0.       
  4.2500e-11      0.           0.       
  4.3000e-11      0.           0.       
  4.3500e-11      0.           0.       
  4.4000e-11      0.           0.       
  4.4500e-11      0.           0.       
  4.5000e-11      0.           0.       
  4.5500e-11      0.           0.       
  4.6000e-11      0.           0.       
  4.6500e-11      0.           0.       
  4.7000e-11      0.           0.       
  4.7500e-11      0.           0.       
  4.8000e-11      0.           0.       
  4.8500e-11      0.           0.       
  4.9000e-11      0.           0.       
  4.9500e-11      0.           0.       
  5.0000e-11      0.           0.       
  5.0500e-11      0.           0.       
  5.1000e-11      0.           0.       
  5.1500e-11      0.           0.       
  5.2000e-11      0.           0.       
  5.2500e-11      0.           0.       
  5.3000e-11      0.           0.       
  5.3500e-11      0.           0.       
  5.4000e-11      0.           0.       
  5.4500e-11      0.           0.       
  5.5000e-11      0.           0.       
  5.5500e-11      0.           0.       
  5.6000e-11      0.           0.       
  5.6500e-11      0.           0.       
  5.7000e-11      0.           0.       
  5.7500e-11      0.           0.       
  5.8000e-11      0.           0.       
  5.8500e-11      0.           0.       
  5.9000e-11      0.           0.       
  5.9500e-11      0.           0.       
  6.0000e-11      0.           0.       
  6.0500e-11      0.           0.       
  6.1000e-11      0.           0.       
  6.1500e-11      0.           0.       
  6.2000e-11      0.           0.       
  6.2500e-11      0.           0.       
  6.3000e-11      0.           0.       
  6.3500e-11      0.           0.       
  6.4000e-11      0.           0.       
  6.4500e-11      0.           0.       
  6.5000e-11      0.           0.       
  6.5500e-11      0.           0.       
  6.6000e-11      0.           0.       
  6.6500e-11      0.           0.       
  6.7000e-11      0.           0.       
  6.7500e-11      0.           0.       
  6.8000e-11      0.           0.       
  6.8500e-11      0.           0.       
  6.9000e-11      0.           0.       
  6.9500e-11      0.           0.       
  7.0000e-11      0.           0.       
  7.0500e-11      0.           0.       
  7.1000e-11      0.           0.       
  7.1500e-11      0.           0.       
  7.2000e-11      0.           0.       
  7.2500e-11      0.           0.       
  7.3000e-11      0.           0.       
  7.3500e-11      0.           0.       
  7.4000e-11      0.           0.       
  7.4500e-11      0.           0.       
  7.5000e-11      0.           0.       
  7.5500e-11      0.           0.       
  7.6000e-11      0.           0.       
  7.6500e-11      0.           0.       
  7.7000e-11      0.           0.       
  7.7500e-11      0.           0.       
  7.8000e-11      0.           0.       
  7.8500e-11      0.           0.       
  7.9000e-11      0.           0.       
  7.9500e-11      0.           0.       
  8.0000e-11      0.           0.       
  8.0500e-11      0.           0.       
  8.1000e-11      0.           0.       
  8.1500e-11      0.           0.       
  8.2000e-11      0.           0.       
  8.2500e-11      0.           0.       
  8.3000e-11      0.           0.       
  8.3500e-11      0.           0.       
  8.4000e-11      0.           0.       
  8.4500e-11      0.           0.       
  8.5000e-11      0.           0.       
  8.5500e-11      0.           0.       
  8.6000e-11      0.           0.       
  8.6500e-11      0.           0.       
  8.7000e-11      0.           0.       
  8.7500e-11      0.           0.       
  8.8000e-11      0.           0.       
  8.8500e-11      0.           0.       
  8.9000e-11      0.           0.       
  8.9500e-11      0.           0.       
  9.0000e-11      0.           0.       
  9.0500e-11      0.           0.       
  9.1000e-11      0.           0.       
  9.1500e-11      0.           0.       
  9.2000e-11      0.           0.       
  9.2500e-11      0.           0.       
  9.3000e-11      0.           0.       
  9.3500e-11      0.           0.       
  9.4000e-11      0.           0.       
  9.4500e-11      0.           0.       
  9.5000e-11      0.           0.       
  9.5500e-11      0.           0.       
  9.6000e-11      0.           0.       
  9.6500e-11      0.           0.       
  9.7000e-11      0.           0.       
  9.7500e-11      0.           0.       
  9.8000e-11      0.           0.       
  9.8500e-11      0.           0.       
  9.9000e-11      0.           0.       
  9.9500e-11      0.           0.       
  1.0000e-10      0.           0.       
  1.0050e-10      0.           0.       
  1.0100e-10      0.           0.       
  1.0150e-10      0.           0.       
  1.0200e-10      0.           0.       
  1.0250e-10      0.           0.       
  1.0300e-10      0.           0.       
  1.0350e-10      0.           0.       
  1.0400e-10      0.           0.       
  1.0450e-10      0.           0.       
  1.0500e-10      0.           0.       
  1.0550e-10      0.           0.       
  1.0600e-10      0.           0.       
  1.0650e-10      0.           0.       
  1.0700e-10      0.           0.       
  1.0750e-10      0.           0.       
  1.0800e-10      0.           0.       
  1.0850e-10      0.           0.       
  1.0900e-10      0.           0.       
  1.0950e-10      0.           0.       
  1.1000e-10      0.           0.       
  1.1050e-10      0.           0.       
  1.1100e-10      0.           0.       
  1.1150e-10      0.           0.       
  1.1200e-10      0.           0.       
  1.1250e-10      0.           0.       
  1.1300e-10      0.           0.       
  1.1350e-10      0.           0.       
  1.1400e-10      0.           0.       
  1.1450e-10      0.           0.       
  1.1500e-10      0.           0.       
  1.1550e-10      0.           0.       
  1.1600e-10      0.           0.       
  1.1650e-10      0.           0.       
  1.1700e-10      0.           0.       
  1.1750e-10      0.           0.       
  1.1800e-10      0.           0.       
  1.1850e-10      0.           0.       
  1.1900e-10      0.           0.       
  1.1950e-10      0.           0.       
  1.2000e-10      0.           0.       
  1.2050e-10      0.           0.       
  1.2100e-10      0.           0.       
  1.2150e-10      0.           0.       
  1.2200e-10      0.           0.       
  1.2250e-10      0.           0.       
  1.2300e-10      0.           0.       
  1.2350e-10      0.           0.       
  1.2400e-10      0.           0.       
  1.2450e-10      0.           0.       
  1.2500e-10      0.           0.       
  1.2550e-10      0.           0.       
  1.2600e-10      0.           0.       
  1.2650e-10      0.           0.       
  1.2700e-10      0.           0.       
  1.2750e-10      0.           0.       
  1.2800e-10      0.           0.       
  1.2850e-10      0.           0.       
  1.2900e-10      0.           0.       
  1.2950e-10      0.           0.       
  1.3000e-10      0.           0.       
  1.3050e-10      0.           0.       
  1.3100e-10      0.           0.       
  1.3150e-10      0.           0.       
  1.3200e-10      0.           0.       
  1.3250e-10      0.           0.       
  1.3300e-10      0.           0.       
  1.3350e-10      0.           0.       
  1.3400e-10      0.           0.       
  1.3450e-10      0.           0.       
  1.3500e-10      0.           0.       
  1.3550e-10      0.           0.       
  1.3600e-10      0.           0.       
  1.3650e-10      0.           0.       
  1.3700e-10      0.           0.       
  1.3750e-10      0.           0.       
  1.3800e-10      0.           0.       
  1.3850e-10      0.           0.       
  1.3900e-10      0.           0.       
  1.3950e-10      0.           0.       
  1.4000e-10      0.           0.       
  1.4050e-10      0.           0.       
  1.4100e-10      0.           0.       
  1.4150e-10      0.           0.       
  1.4200e-10      0.           0.       
  1.4250e-10      0.           0.       
  1.4300e-10      0.           0.       
  1.4350e-10      0.           0.       
  1.4400e-10      0.           0.       
  1.4450e-10      0.           0.       
  1.4500e-10      0.           0.       
  1.4550e-10      0.           0.       
  1.4600e-10      0.           0.       
  1.4650e-10      0.           0.       
  1.4700e-10      0.           0.       
  1.4750e-10      0.           0.       
  1.4800e-10      0.           0.       
  1.4850e-10      0.           0.       
  1.4900e-10      0.           0.       
  1.4950e-10      0.           0.       
  1.5000e-10      0.           0.       
  1.5050e-10      0.           0.       
  1.5100e-10      0.           0.       
  1.5150e-10      0.           0.       
  1.5200e-10      0.           0.       
  1.5250e-10      0.           0.       
  1.5300e-10      0.           0.       
  1.5350e-10      0.           0.       
  1.5400e-10      0.           0.       
  1.5450e-10      0.           0.       
  1.5500e-10      0.           0.       
  1.5550e-10      0.           0.       
  1.5600e-10      0.           0.       
  1.5650e-10      0.           0.       
  1.5700e-10      0.           0.       
  1.5750e-10      0.           0.       
  1.5800e-10      0.           0.       
  1.5850e-10      0.           0.       
  1.5900e-10      0.           0.       
  1.5950e-10      0.           0.       
  1.6000e-10      0.           0.       
  1.6050e-10      0.           0.       
  1.6100e-10      0.           0.       
  1.6150e-10      0.           0.       
  1.6200e-10      0.           0.       
  1.6250e-10      0.           0.       
  1.6300e-10      0.           0.       
  1.6350e-10      0.           0.       
  1.6400e-10      0.           0.       
  1.6450e-10      0.           0.       
  1.6500e-10      0.           0.       
  1.6550e-10      0.           0.       
  1.6600e-10      0.           0.       
  1.6650e-10      0.           0.       
  1.6700e-10      0.           0.       
  1.6750e-10      0.           0.       
  1.6800e-10      0.           0.       
  1.6850e-10      0.           0.       
  1.6900e-10      0.           0.       
  1.6950e-10      0.           0.       
  1.7000e-10      0.           0.       
  1.7050e-10      0.           0.       
  1.7100e-10      0.           0.       
  1.7150e-10      0.           0.       
  1.7200e-10      0.           0.       
  1.7250e-10      0.           0.       
  1.7300e-10      0.           0.       
  1.7350e-10      0.           0.       
  1.7400e-10      0.           0.       
  1.7450e-10      0.           0.       
  1.7500e-10      0.           0.       
  1.7550e-10      0.           0.       
  1.7600e-10      0.           0.       
  1.7650e-10      0.           0.       
  1.7700e-10      0.           0.       
  1.7750e-10      0.           0.       
  1.7800e-10      0.           0.       
  1.7850e-10      0.           0.       
  1.7900e-10      0.           0.       
  1.7950e-10      0.           0.       
  1.8000e-10      0.           0.       
  1.8050e-10      0.           0.       
  1.8100e-10      0.           0.       
  1.8150e-10      0.           0.       
  1.8200e-10      0.           0.       
  1.8250e-10      0.           0.       
  1.8300e-10      0.           0.       
  1.8350e-10      0.           0.       
  1.8400e-10      0.           0.       
  1.8450e-10      0.           0.       
  1.8500e-10      0.           0.       
  1.8550e-10      0.           0.       
  1.8600e-10      0.           0.       
  1.8650e-10      0.           0.       
  1.8700e-10      0.           0.       
  1.8750e-10      0.           0.       
  1.8800e-10      0.           0.       
  1.8850e-10      0.           0.       
  1.8900e-10      0.           0.       
  1.8950e-10      0.           0.       
  1.9000e-10      0.           0.       
  1.9050e-10      0.           0.       
  1.9100e-10      0.           0.       
  1.9150e-10      0.           0.       
  1.9200e-10      0.           0.       
  1.9250e-10      0.           0.       
  1.9300e-10      0.           0.       
  1.9350e-10      0.           0.       
  1.9400e-10      0.           0.       
  1.9450e-10      0.           0.       
  1.9500e-10      0.           0.       
  1.9550e-10      0.           0.       
  1.9600e-10      0.           0.       
  1.9650e-10      0.           0.       
  1.9700e-10      0.           0.       
  1.9750e-10      0.           0.       
  1.9800e-10      0.           0.       
  1.9850e-10      0.           0.       
  1.9900e-10      0.           0.       
  1.9950e-10      0.           0.       
  2.0000e-10      0.           0.       
  2.0050e-10      0.           0.       
  2.0100e-10      0.           0.       
  2.0150e-10      0.           0.       
  2.0200e-10      0.           0.       
  2.0250e-10      0.           0.       
  2.0300e-10      0.           0.       
  2.0350e-10      0.           0.       
  2.0400e-10      0.           0.       
  2.0450e-10      0.           0.       
  2.0500e-10      0.           0.       
  2.0550e-10      0.           0.       
  2.0600e-10      0.           0.       
  2.0650e-10      0.           0.       
  2.0700e-10      0.           0.       
  2.0750e-10      0.           0.       
  2.0800e-10      0.           0.       
  2.0850e-10      0.           0.       
  2.0900e-10      0.           0.       
  2.0950e-10      0.           0.       
  2.1000e-10      0.           0.       
  2.1050e-10      0.           0.       
  2.1100e-10      0.           0.       
  2.1150e-10      0.           0.       
  2.1200e-10      0.           0.       
  2.1250e-10      0.           0.       
  2.1300e-10      0.           0.       
  2.1350e-10      0.           0.       
  2.1400e-10      0.           0.       
  2.1450e-10      0.           0.       
  2.1500e-10      0.           0.       
  2.1550e-10      0.           0.       
  2.1600e-10      0.           0.       
  2.1650e-10      0.           0.       
  2.1700e-10      0.           0.       
  2.1750e-10      0.           0.       
  2.1800e-10      0.           0.       
  2.1850e-10      0.           0.       
  2.1900e-10      0.           0.       
  2.1950e-10      0.           0.       
  2.2000e-10      0.           0.       
  2.2050e-10      0.           0.       
  2.2100e-10      0.           0.       
  2.2150e-10      0.           0.       
  2.2200e-10      0.           0.       
  2.2250e-10      0.           0.       
  2.2300e-10      0.           0.       
  2.2350e-10      0.           0.       
  2.2400e-10      0.           0.       
  2.2450e-10      0.           0.       
  2.2500e-10      0.           0.       
  2.2550e-10      0.           0.       
  2.2600e-10      0.           0.       
  2.2650e-10      0.           0.       
  2.2700e-10      0.           0.       
  2.2750e-10      0.           0.       
  2.2800e-10      0.           0.       
  2.2850e-10      0.           0.       
  2.2900e-10      0.           0.       
  2.2950e-10      0.           0.       
  2.3000e-10      0.           0.       
  2.3050e-10      0.           0.       
  2.3100e-10      0.           0.       
  2.3150e-10      0.           0.       
  2.3200e-10      0.           0.       
  2.3250e-10      0.           0.       
  2.3300e-10      0.           0.       
  2.3350e-10      0.           0.       
  2.3400e-10      0.           0.       
  2.3450e-10      0.           0.       
  2.3500e-10      0.           0.       
  2.3550e-10      0.           0.       
  2.3600e-10      0.           0.       
  2.3650e-10      0.           0.       
  2.3700e-10      0.           0.       
  2.3750e-10      0.           0.       
  2.3800e-10      0.           0.       
  2.3850e-10      0.           0.       
  2.3900e-10      0.           0.       
  2.3950e-10      0.           0.       
  2.4000e-10      0.           0.       
  2.4050e-10      0.           0.       
  2.4100e-10      0.           0.       
  2.4150e-10      0.           0.       
  2.4200e-10      0.           0.       
  2.4250e-10      0.           0.       
  2.4300e-10      0.           0.       
  2.4350e-10      0.           0.       
  2.4400e-10      0.           0.       
  2.4450e-10      0.           0.       
  2.4500e-10      0.           0.       
  2.4550e-10      0.           0.       
  2.4600e-10      0.           0.       
  2.4650e-10      0.           0.       
  2.4700e-10      0.           0.       
  2.4750e-10      0.           0.       
  2.4800e-10      0.           0.       
  2.4850e-10      0.           0.       
  2.4900e-10      0.           0.       
  2.4950e-10      0.           0.       
  2.5050e-10      0.           0.       
  2.5100e-10    7.435e-06      0.       
  2.5150e-10    1.046e-05      0.       
  2.5200e-10    1.273e-05      0.       
  2.5250e-10    1.462e-05      0.       
  2.5300e-10    1.626e-05      0.       
  2.5350e-10    1.771e-05      0.       
  2.5400e-10    1.903e-05      0.       
  2.5450e-10    2.023e-05      0.       
  2.5500e-10    2.133e-05      0.       
  2.5550e-10    2.236e-05      0.       
  2.5600e-10    2.333e-05      0.       
  2.5650e-10    2.423e-05      0.       
  2.5700e-10    2.508e-05      0.       
  2.5750e-10    2.588e-05      0.       
  2.5800e-10    2.664e-05      0.       
  2.5850e-10    2.736e-05      0.       
  2.5900e-10    2.805e-05      0.       
  2.5950e-10    2.870e-05      0.       
  2.6000e-10    2.932e-05      0.       
  2.6050e-10    2.992e-05      0.       
  2.6100e-10    3.049e-05      0.       
  2.6150e-10    3.103e-05      0.       
  2.6200e-10    3.155e-05      0.       
  2.6250e-10    3.205e-05      0.       
  2.6300e-10    3.253e-05      0.       
  2.6350e-10    3.299e-05      0.       
  2.6400e-10    3.344e-05      0.       
  2.6450e-10    3.386e-05      0.       
  2.6500e-10    3.427e-05      0.       
  2.6550e-10    3.466e-05      0.       
  2.6600e-10    3.504e-05      0.       
  2.6650e-10    3.540e-05      0.       
  2.6700e-10    3.575e-05      0.       
  2.6750e-10    3.609e-05      0.       
  2.6800e-10    3.641e-05      0.       
  2.6850e-10    3.672e-05      0.       
  2.6900e-10    3.703e-05      0.       
  2.6950e-10    3.731e-05      0.       
  2.7000e-10    3.759e-05      0.       
  2.7050e-10    3.786e-05      0.       
  2.7100e-10    3.812e-05      0.       
  2.7150e-10    3.837e-05      0.       
  2.7200e-10    3.861e-05      0.       
  2.7250e-10    3.884e-05      0.       
  2.7300e-10    3.906e-05      0.       
  2.7350e-10    3.927e-05      0.       
  2.7400e-10    3.947e-05      0.       
  2.7450e-10    3.967e-05      0.       
  2.7500e-10    3.986e-05      0.       
  2.7550e-10    4.004e-05      0.       
  2.7600e-10    4.022e-05      0.       
  2.7650e-10    4.038e-05      0.       
  2.7700e-10    4.054e-05      0.       
  2.7750e-10    4.070e-05      0.       
  2.7800e-10    4.085e-05      0.       
  2.7850e-10    4.099e-05      0.       
  2.7900e-10    4.112e-05      0.       
  2.7950e-10    4.125e-05      0.       
  2.8000e-10    4.138e-05      0.       
  2.8050e-10    4.149e-05      0.       
  2.8100e-10    4.161e-05    7.435e-06  
  2.8150e-10    4.171e-05    1.046e-05  
  2.8200e-10    4.182e-05    1.273e-05  
  2.8250e-10    4.191e-05    1.462e-05  
  2.8300e-10    4.200e-05    1.626e-05  
  2.8350e-10    4.209e-05    1.771e-05  
  2.8400e-10    4.217e-05    1.903e-05  
  2.8450e-10    4.225e-05    2.023e-05  
  2.8500e-10    4.233e-05    2.133e-05  
  2.8550e-10    4.240e-05    2.236e-05  
  2.8600e-10    4.246e-05    2.333e-05  
  2.8650e-10    4.252e-05    2.423e-05  
  2.8700e-10    4.258e-05    2.508e-05  
  2.8750e-10    4.263e-05    2.588e-05  
  2.8800e-10    4.268e-05    2.664e-05  
  2.8850e-10    4.273e-05    2.736e-05  
  2.8900e-10    4.277e-05    2.805e-05  
  2.8950e-10    4.281e-05    2.870e-05  
  2.9000e-10    4.284e-05    2.932e-05  
  2.9050e-10    4.287e-05    2.992e-05  
  2.9100e-10    4.290e-05    3.049e-05  
  2.9150e-10    4.293e-05    3.103e-05  
  2.9200e-10    4.295e-05    3.155e-05  
  2.9250e-10    4.297e-05    3.205e-05  
  2.9300e-10    4.298e-05    3.253e-05  
  2.9350e-10    4.300e-05    3.299e-05  
  2.9400e-10    4.300e-05    3.344e-05  
  2.9450e-10    4.301e-05    3.386e-05  
  2.9500e-10    4.302e-05    3.427e-05  
  2.9550e-10    4.302e-05    3.466e-05  
  2.9600e-10    4.302e-05    3.504e-05  
  2.9650e-10    4.301e-05    3.540e-05  
  2.9700e-10    4.301e-05    3.575e-05  
  2.9750e-10    4.300e-05    3.609e-05  
  2.9800e-10    4.299e-05    3.641e-05  
  2.9850e-10    4.297e-05    3.672e-05  
  2.9900e-10    4.296e-05    3.703e-05  
  2.9950e-10    4.294e-05    3.731e-05  
  3.0000e-10    4.292e-05    3.759e-05  
  3.0050e-10    4.289e-05    3.786e-05  
  3.0100e-10    4.287e-05    3.812e-05  
  3.0150e-10    4.284e-05    3.837e-05  
  3.0200e-10    4.281e-05    3.861e-05  
  3.0250e-10    4.278e-05    3.884e-05  
  3.0300e-10    4.275e-05    3.906e-05  
  3.0350e-10    4.271e-05    3.927e-05  
  3.0400e-10    4.268e-05    3.947e-05  
  3.0450e-10    4.264e-05    3.967e-05  
  3.0500e-10    4.260e-05    3.986e-05  
  3.0550e-10    4.256e-05    4.004e-05  
  3.0600e-10    4.251e-05    4.022e-05  
  3.0650e-10    4.247e-05    4.038e-05  
  3.0700e-10    4.242e-05    4.054e-05  
  3.0750e-10    4.237e-05    4.070e-05  
  3.0800e-10    4.232e-05    4.085e-05  
  3.0850e-10    4.227e-05    4.099e-05  
  3.0900e-10    4.222e-05    4.112e-05  
  3.0950e-10    4.216e-05    4.125e-05  
  3.1000e-10    4.210e-05    4.138e-05  
  3.1050e-10    4.205e-05    4.149e-05  
  3.1100e-10    4.199e-05    4.161e-05  
  3.1150e-10    4.193e-05    4.171e-05  
  3.1200e-10    4.186e-05    4.182e-05  
  3.1250e-10    4.180e-05    4.191e-05  
  3.1300e-10    4.174e-05    4.200e-05  
  3.1350e-10    4.167e-05    4.209e-05  
  3.1400e-10    4.161e-05    4.217e-05  
  3.1450e-10    4.154e-05    4.225e-05  
  3.1500e-10    4.147e-05    4.233e-05  
  3.1550e-10    4.140e-05    4.240e-05  
  3.1600e-10    4.133e-05    4.246e-05  
  3.1650e-10    4.125e-05    4.252e-05  
  3.1700e-10    4.118e-05    4.258e-05  
  3.1750e-10    4.111e-05    4.263e-05  
  3.1800e-10    4.103e-05    4.268e-05  
  3.1850e-10    4.095e-05    4.273e-05  
  3.1900e-10    4.088e-05    4.277e-05  
  3.1950e-10    4.080e-05    4.281e-05  
  3.2000e-10    4.072e-05    4.284e-05  
  3.2050e-10    4.064e-05    4.287e-05  
  3.2100e-10    4.056e-05    4.290e-05  
  3.2150e-10    4.048e-05    4.293e-05  
  3.2200e-10    4.039e-05    4.295e-05  
  3.2250e-10    4.031e-05    4.297e-05  
  3.2300e-10    4.023e-05    4.298e-05  
  3.2350e-10    4.014e-05    4.300e-05  
  3.2400e-10    4.005e-05    4.300e-05  
  3.2450e-10    3.997e-05    4.301e-05  
  3.2500e-10    3.988e-05    4.302e-05  
  3.2550e-10    3.979e-05    4.302e-05  
  3.2600e-10    3.970e-05    4.302e-05  
  3.2650e-10    3.961e-05    4.301e-05  
  3.2700e-10    3.952e-05    4.301e-05  
  3.2750e-10    3.943e-05    4.300e-05  
  3.2800e-10    3.934e-05    4.299e-05  
  3.2850e-10    3.925e-05    4.297e-05  
  3.2900e-10    3.916e-05    4.296e-05  
  3.2950e-10    3.906e-05    4.294e-05  
  3.3000e-10    3.897e-05    4.292e-05  
  3.3050e-10    3.888e-05    4.289e-05  
  3.3100e-10    3.878e-05    4.287e-05  
  3.3150e-10    3.869e-05    4.284e-05  
  3.3200e-10    3.859e-05    4.281e-05  
  3.3250e-10    3.849e-05    4.278e-05  
  3.3300e-10    3.840e-05    4.275e-05  
  3.3350e-10    3.830e-05    4.271e-05  
  3.3400e-10    3.820e-05    4.268e-05  
  3.3450e-10    3.810e-05    4.264e-05  
  3.3500e-10    3.801e-05    4.260e-05  
  3.3550e-10    3.791e-05    4.256e-05  
  3.3600e-10    3.781e-05    4.251e-05  
  3.3650e-10    3.771e-05    4.247e-05  
  3.3700e-10    3.761e-05    4.242e-05  
  3.3750e-10    3.751e-05    4.237e-05  
  3.3800e-10    3.741e-05    4.232e-05  
  3.3850e-10    3.731e-05    4.227e-05  
  3.3900e-10    3.720e-05    4.222e-05  
  3.3950e-10    3.710e-05    4.216e-05  
  3.4000e-10    3.700e-05    4.210e-05  
  3.4050e-10    3.690e-05    4.205e-05  
  3.4100e-10    3.680e-05    4.199e-05  
  3.4150e-10    3.669e-05    4.193e-05  
  3.4200e-10    3.659e-05    4.186e-05  
  3.4250e-10    3.649e-05    4.180e-05  
  3.4300e-10    3.638e-05    4.174e-05  
  3.4350e-10    3.628e-05    4.167e-05  
  3.4400e-10    3.617e-05    4.161e-05  
  3.4450e-10    3.607e-05    4.154e-05  
  3.4500e-10    3.597e-05    4.147e-05  
  3.4550e-10    3.586e-05    4.140e-05  
  3.4600e-10    3.576e-05    4.133e-05  
  3.4650e-10    3.565e-05    4.125e-05  
  3.4700e-10    3.555e-05    4.118e-05  
  3.4750e-10    3.544e-05    4.111e-05  
  3.4800e-10    3.533e-05    4.103e-05  
  3.4850e-10    3.523e-05    4.095e-05  
  3.4900e-10    3.512e-05    4.088e-05  
  3.4950e-10    3.502e-05    4.080e-05  
  3.5000e-10    3.491e-05    4.072e-05  
  3.5050e-10    3.480e-05    4.064e-05  
  3.5100e-10    3.470e-05    4.056e-05  
  3.5150e-10    3.459e-05    4.048e-05  
  3.5200e-10    3.448e-05    4.039e-05  
  3.5250e-10    3.438e-05    4.031e-05  
  3.5300e-10    3.427e-05    4.023e-05  
  3.5350e-10    3.416e-05    4.014e-05  
  3.5400e-10    3.406e-05    4.005e-05  
  3.5450e-10    3.395e-05    3.997e-05  
  3.5500e-10    3.384e-05    3.988e-05  
  3.5550e-10    3.374e-05    3.979e-05  
  3.5600e-10    3.363e-05    3.970e-05  
  3.5650e-10    3.352e-05    3.961e-05  
  3.5700e-10    3.341e-05    3.952e-05  
  3.5750e-10    3.331e-05    3.943e-05  
  3.5800e-10    3.320e-05    3.934e-05  
  3.5850e-10    3.309e-05    3.925e-05  
  3.5900e-10    3.299e-05    3.916e-05  
  3.5950e-10    3.288e-05    3.906e-05  
  3.6000e-10    3.277e-05    3.897e-05  
  3.6050e-10    3.266e-05    3.888e-05  
  3.6100e-10    3.256e-05    3.878e-05  
  3.6150e-10    3.245e-05    3.869e-05  
  3.6200e-10    3.234e-05    3.859e-05  
  3.6250e-10    3.224e-05    3.849e-05  
  3.6300e-10    3.213e-05    3.840e-05  
  3.6350e-10    3.202e-05    3.830e-05  
  3.6400e-10    3.191e-05    3.820e-05  
  3.6450e-10    3.181e-05    3.810e-05  
  3.6500e-10    3.170e-05    3.801e-05  
  3.6550e-10    3.159e-05    3.791e-05  
  3.6600e-10    3.149e-05    3.781e-05  
  3.6650e-10    3.138e-05    3.771e-05  
  3.6700e-10    3.127e-05    3.761e-05  
  3.6750e-10    3.117e-05    3.751e-05  
  3.6800e-10    3.106e-05    3.741e-05  
  3.6850e-10    3.095e-05    3.731e-05  
  3.6900e-10    3.085e-05    3.720e-05  
  3.6950e-10    3.074e-05    3.710e-05  
  3.7000e-10    3.064e-05    3.700e-05  
  3.7050e-10    3.053e-05    3.690e-05  
  3.7100e-10    3.042e-05    3.680e-05  
  3.7150e-10    3.032e-05    3.669e-05  
  3.7200e-10    3.021e-05    3.659e-05  
  3.7250e-10    3.011e-05    3.649e-05  
  3.7300e-10    3.000e-05    3.638e-05  
  3.7350e-10    2.989e-05    3.628e-05  
  3.7400e-10    2.979e-05    3.617e-05  
  3.7450e-10    2.968e-05    3.607e-05  
  3.7500e-10    2.958e-05    3.597e-05  
  3.7550e-10    2.947e-05    3.586e-05  
  3.7600e-10    2.937e-05    3.576e-05  
  3.7650e-10    2.927e-05    3.565e-05  
  3.7700e-10    2.916e-05    3.555e-05  
  3.7750e-10    2.906e-05    3.544e-05  
  3.7800e-10    2.895e-05    3.533e-05  
  3.7850e-10    2.885e-05    3.523e-05  
  3.7900e-10    2.874e-05    3.512e-05  
  3.7950e-10    2.864e-05    3.502e-05  
  3.8000e-10    2.854e-05    3.491e-05  
  3.8050e-10    2.843e-05    3.480e-05  
  3.8100e-10    2.833e-05    3.470e-05  
  3.8150e-10    2.823e-05    3.459e-05  
  3.8200e-10    2.812e-05    3.448e-05  
  3.8250e-10    2.802e-05    3.438e-05  
  3.8300e-10    2.792e-05    3.427e-05  
  3.8350e-10    2.782e-05    3.416e-05  
  3.8400e-10    2.772e-05    3.406e-05  
  3.8450e-10    2.761e-05    3.395e-05  
  3.8500e-10    2.751e-05    3.384e-05  
  3.8550e-10    2.741e-05    3.374e-05  
  3.8600e-10    2.731e-05    3.363e-05  
  3.8650e-10    2.721e-05    3.352e-05  
  3.8700e-10    2.711e-05    3.341e-05  
  3.8750e-10    2.701e-05    3.331e-05  
  3.8800e-10    2.690e-05    3.320e-05  
  3.8850e-10    2.680e-05    3.309e-05  
  3.8900e-10    2.670e-05    3.299e-05  
  3.8950e-10    2.660e-05    3.288e-05  
  3.9000e-10    2.650e-05    3.277e-05  
  3.9050e-10    2.640e-05    3.266e-05  
  3.9100e-10    2.630e-05    3.256e-05  
  3.9150e-10    2.621e-05    3.245e-05  
  3.9200e-10    2.611e-05    3.234e-05  
  3.9250e-10    2.601e-05    3.224e-05  
  3.9300e-10    2.591e-05    3.213e-05  
  3.9350e-10    2.581e-05    3.202e-05  
  3.9400e-10    2.571e-05    3.191e-05  
  3.9450e-10    2.561e-05    3.181e-05  
  3.9500e-10    2.552e-05    3.170e-05  
  3.9550e-10    2.542e-05    3.159e-05  
  3.9600e-10    2.532e-05    3.149e-05  
  3.9650e-10    2.523e-05    3.138e-05  
  3.9700e-10    2.513e-05    3.127e-05  
  3.9750e-10    2.503e-05    3.117e-05  
  3.9800e-10    2.494e-05    3.106e-05  
  3.9850e-10    2.484e-05    3.095e-05  
  3.9900e-10    2.474e-05    3.085e-05  
  3.9950e-10    2.465e-05    3.074e-05  
  4.0000e-10    2.455e-05    3.064e-05  
  4.0050e-10    2.446e-05    3.053e-05  
  4.0100e-10    2.436e-05    3.042e-05  
  4.0150e-10    2.427e-05    3.032e-05  
  4.0200e-10    2.417e-05    3.021e-05  
  4.0250e-10    2.408e-05    3.011e-05  
  4.0300e-10    2.398e-05    3.000e-05  
  4.0350e-10    2.389e-05    2.989e-05  
  4.0400e-10    2.380e-05    2.979e-05  
  4.0450e-10    2.370e-05    2.968e-05  
  4.0500e-10    2.361e-05    2.958e-05  
  4.0550e-10    2.352e-05    2.947e-05  
  4.0600e-10    2.343e-05    2.937e-05  
  4.0650e-10    2.333e-05    2.927e-05  
  4.0700e-10    2.324e-05    2.916e-05  
  4.0750e-10    2.315e-05    2.906e-05  
  4.0800e-10    2.306e-05    2.895e-05  
  4.0850e-10    2.297e-05    2.885e-05  
  4.0900e-10    2.287e-05    2.874e-05  
  4.0950e-10    2.278e-05    2.864e-05  
  4.1000e-10    2.269e-05    2.854e-05  
  4.1050e-10    2.260e-05    2.843e-05  
  4.1100e-10    2.251e-05    2.833e-05  
  4.1150e-10    2.242e-05    2.823e-05  
  4.1200e-10    2.233e-05    2.812e-05  
  4.1250e-10    2.224e-05    2.802e-05  
  4.1300e-10    2.215e-05    2.792e-05  
  4.1350e-10    2.207e-05    2.782e-05  
  4.1400e-10    2.198e-05    2.772e-05  
  4.1450e-10    2.189e-05    2.761e-05  
  4.1500e-10    2.180e-05    2.751e-05  
  4.1550e-10    2.171e-05    2.741e-05  
  4.1600e-10    2.163e-05    2.731e-05  
  4.1650e-10    2.154e-05    2.721e-05  
  4.1700e-10    2.145e-05    2.711e-05  
  4.1750e-10    2.136e-05    2.701e-05  
  4.1800e-10    2.128e-05    2.690e-05  
  4.1850e-10    2.119e-05    2.680e-05  
  4.1900e-10    2.111e-05    2.670e-05  
  4.1950e-10    2.102e-05    2.660e-05  
  4.2000e-10    2.093e-05    2.650e-05  
  4.2050e-10    2.085e-05    2.640e-05  
  4.2100e-10    2.076e-05    2.630e-05  
  4.2150e-10    2.068e-05    2.621e-05  
  4.2200e-10    2.059e-05    2.611e-05  
  4.2250e-10    2.051e-05    2.601e-05  
  4.2300e-10    2.043e-05    2.591e-05  
  4.2350e-10    2.034e-05    2.581e-05  
  4.2400e-10    2.026e-05    2.571e-05  
  4.2450e-10    2.018e-05    2.561e-05  
  4.2500e-10    2.009e-05    2.552e-05  
  4.2550e-10    2.001e-05    2.542e-05  
  4.2600e-10    1.993e-05    2.532e-05  
  4.2650e-10    1.984e-05    2.523e-05  
  4.2700e-10    1.976e-05    2.513e-05  
  4.2750e-10    1.968e-05    2.503e-05  
  4.2800e-10    1.960e-05    2.494e-05  
  4.2850e-10    1.952e-05    2.484e-05  
  4.2900e-10    1.944e-05    2.474e-05  
  4.2950e-10    1.936e-05    2.465e-05  
  4.3000e-10    1.928e-05    2.455e-05  
  4.3050e-10    1.920e-05    2.446e-05  
  4.3100e-10    1.912e-05    2.436e-05  
  4.3150e-10    1.904e-05    2.427e-05  
  4.3200e-10    1.896e-05    2.417e-05  
  4.3250e-10    1.888e-05    2.408e-05  
  4.3300e-10    1.880e-05    2.398e-05  
  4.3350e-10    1.872e-05    2.389e-05  
  4.3400e-10    1.864e-05    2.380e-05  
  4.3450e-10    1.857e-05    2.370e-05  
  4.3500e-10    1.849e-05    2.361e-05  
  4.3550e-10    1.841e-05    2.352e-05  
  4.3600e-10    1.833e-05    2.343e-05  
  4.3650e-10    1.826e-05    2.333e-05  
  4.3700e-10    1.818e-05    2.324e-05  
  4.3750e-10    1.810e-05    2.315e-05  
  4.3800e-10    1.803e-05    2.306e-05  
  4.3850e-10    1.795e-05    2.297e-05  
  4.3900e-10    1.787e-05    2.287e-05  
  4.3950e-10    1.780e-05    2.278e-05  
  4.4000e-10    1.772e-05    2.269e-05  
  4.4050e-10    1.765e-05    2.260e-05  
  4.4100e-10    1.757e-05    2.251e-05  
  4.4150e-10    1.750e-05    2.242e-05  
  4.4200e-10    1.743e-05    2.233e-05  
  4.4250e-10    1.735e-05    2.224e-05  
  4.4300e-10    1.728e-05    2.215e-05  
  4.4350e-10    1.720e-05    2.207e-05  
  4.4400e-10    1.713e-05    2.198e-05  
  4.4450e-10    1.706e-05    2.189e-05  
  4.4500e-10    1.699e-05    2.180e-05  
  4.4550e-10    1.691e-05    2.171e-05  
  4.4600e-10    1.684e-05    2.163e-05  
  4.4650e-10    1.677e-05    2.154e-05  
  4.4700e-10    1.670e-05    2.145e-05  
  4.4750e-10    1.663e-05    2.136e-05  
  4.4800e-10    1.656e-05    2.128e-05  
  4.4850e-10    1.648e-05    2.119e-05  
  4.4900e-10    1.641e-05    2.111e-05  
  4.4950e-10    1.634e-05    2.102e-05  
  4.5000e-10    1.627e-05    2.093e-05  
  4.5050e-10    1.620e-05    2.085e-05  
  4.5100e-10    1.613e-05    2.076e-05  
  4.5150e-10    1.606e-05    2.068e-05  
  4.5200e-10    1.599e-05    2.059e-05  
  4.5250e-10    1.593e-05    2.051e-05  
  4.5300e-10    1.586e-05    2.043e-05  
  4.5350e-10    1.579e-05    2.034e-05  
  4.5400e-10    1.572e-05    2.026e-05  
  4.5450e-10    1.565e-05    2.018e-05  
  4.5500e-10    1.559e-05    2.009e-05  
  4.5550e-10    1.552e-05    2.001e-05  
  4.5600e-10    1.545e-05    1.993e-05  
  4.5650e-10    1.538e-05    1.984e-05  
  4.5700e-10    1.532e-05    1.976e-05  
  4.5750e-10    1.525e-05    1.968e-05  
  4.5800e-10    1.518e-05    1.960e-05  
  4.5850e-10    1.512e-05    1.952e-05  
  4.5900e-10    1.505e-05    1.944e-05  
  4.5950e-10    1.499e-05    1.936e-05  
  4.6000e-10    1.492e-05    1.928e-05  
  4.6050e-10    1.486e-05    1.920e-05  
  4.6100e-10    1.479e-05    1.912e-05  
  4.6150e-10    1.473e-05    1.904e-05  
  4.6200e-10    1.466e-05    1.896e-05  
  4.6250e-10    1.460e-05    1.888e-05  
  4.6300e-10    1.454e-05    1.880e-05  
  4.6350e-10    1.447e-05    1.872e-05  
  4.6400e-10    1.441e-05    1.864e-05  
  4.6450e-10    1.435e-05    1.857e-05  
  4.6500e-10    1.428e-05    1.849e-05  
  4.6550e-10    1.422e-05    1.841e-05  
  4.6600e-10    1.416e-05    1.833e-05  
  4.6650e-10    1.410e-05    1.826e-05  
  4.6700e-10    1.403e-05    1.818e-05  
  4.6750e-10    1.397e-05    1.810e-05  
  4.6800e-10    1.391e-05    1.803e-05  
  4.6850e-10    1.385e-05    1.795e-05  
  4.6900e-10    1.379e-05    1.787e-05  
  4.6950e-10    1.373e-05    1.780e-05  
  4.7000e-10    1.367e-05    1.772e-05  
  4.7050e-10    1.361e-05    1.765e-05  
  4.7100e-10    1.355e-05    1.757e-05  
  4.7150e-10    1.349e-05    1.750e-05  
  4.7200e-10    1.343e-05    1.743e-05  
  4.7250e-10    1.337e-05    1.735e-05  
  4.7300e-10    1.331e-05    1.728e-05  
  4.7350e-10    1.325e-05    1.720e-05  
  4.7400e-10    1.319e-05    1.713e-05  
  4.7450e-10    1.313e-05    1.706e-05  
  4.7500e-10    1.308e-05    1.699e-05  
  4.7550e-10    1.302e-05    1.691e-05  
  4.7600e-10    1.296e-05    1.684e-05  
  4.7650e-10    1.290e-05    1.677e-05  
  4.7700e-10    1.285e-05    1.670e-05  
  4.7750e-10    1.279e-05    1.663e-05  
  4.7800e-10    1.273e-05    1.656e-05  
  4.7850e-10    1.267e-05    1.648e-05  
  4.7900e-10    1.262e-05    1.641e-05  
  4.7950e-10    1.256e-05    1.634e-05  
  4.8000e-10    1.251e-05    1.627e-05  
  4.8050e-10    1.245e-05    1.620e-05  
  4.8100e-10    1.239e-05    1.613e-05  
  4.8150e-10    1.234e-05    1.606e-05  
  4.8200e-10    1.228e-05    1.599e-05  
  4.8250e-10    1.223e-05    1.593e-05  
  4.8300e-10    1.217e-05    1.586e-05  
  4.8350e-10    1.212e-05    1.579e-05  
  4.8400e-10    1.207e-05    1.572e-05  
  4.8450e-10    1.201e-05    1.565e-05  
  4.8500e-10    1.196e-05    1.559e-05  
  4.8550e-10    1.190e-05    1.552e-05  
  4.8600e-10    1.185e-05    1.545e-05  
  4.8650e-10    1.180e-05    1.538e-05  
  4.8700e-10    1.175e-05    1.532e-05  
  4.8750e-10    1.169e-05    1.525e-05  
  4.8800e-10    1.164e-05    1.518e-05  
  4.8850e-10    1.159e-05    1.512e-05  
  4.8900e-10    1.154e-05    1.505e-05  
  4.8950e-10    1.148e-05    1.499e-05  
  4.9000e-10    1.143e-05    1.492e-05  
  4.9050e-10    1.138e-05    1.486e-05  
  4.9100e-10    1.133e-05    1.479e-05  
  4.9150e-10    1.128e-05    1.473e-05  
  4.9200e-10    1.123e-05    1.466e-05  
  4.9250e-10    1.118e-05    1.460e-05  
  4.9300e-10    1.113e-05    1.454e-05  
  4.9350e-10    1.108e-05    1.447e-05  
  4.9400e-10    1.103e-05    1.441e-05  
  4.9450e-10    1.098e-05    1.435e-05  
  4.9500e-10    1.093e-05    1.428e-05  
  4.9550e-10    1.088e-05    1.422e-05  
  4.9600e-10    1.083e-05    1.416e-05  
  4.9650e-10    1.078e-05    1.410e-05  
  4.9700e-10    1.073e-05    1.403e-05  
  4.9750e-10    1.068e-05    1.397e-05  
  4.9800e-10    1.063e-05    1.391e-05  
  4.9850e-10    1.058e-05    1.385e-05  
  4.9900e-10    1.054e-05    1.379e-05  
  4.9950e-10    1.049e-05    1.373e-05  
  5.0000e-10    1.044e-05    1.367e-05  
  5.0050e-10    1.039e-05    1.361e-05  
  5.0100e-10    1.035e-05    1.355e-05  
  5.0150e-10    1.030e-05    1.349e-05  
  5.0200e-10    1.025e-05    1.343e-05  
  5.0250e-10    1.021e-05    1.337e-05  
  5.0300e-10    1.016e-05    1.331e-05  
  5.0350e-10    1.011e-05    1.325e-05  
  5.0400e-10    1.007e-05    1.319e-05  
  5.0450e-10    1.002e-05    1.313e-05  
  5.0500e-10    9.976e-06    1.308e-05  
  5.0550e-10    9.930e-06    1.302e-05  
  5.0600e-10    9.885e-06    1.296e-05  
  5.0650e-10    9.840e-06    1.290e-05  
  5.0700e-10    9.795e-06    1.285e-05  
  5.0750e-10    9.750e-06    1.279e-05  
  5.0800e-10    9.705e-06    1.273e-05  
  5.0850e-10    9.661e-06    1.267e-05  
  5.0900e-10    9.617e-06    1.262e-05  
  5.0950e-10    9.573e-06    1.256e-05  
  5.1000e-10    9.529e-06    1.251e-05  
  5.1050e-10    9.485e-06    1.245e-05  
  5.1100e-10    9.442e-06    1.239e-05  
  5.1150e-10    9.398e-06    1.234e-05  
  5.1200e-10    9.355e-06    1.228e-05  
  5.1250e-10    9.312e-06    1.223e-05  
  5.1300e-10    9.269e-06    1.217e-05  
  5.1350e-10    9.227e-06    1.212e-05  
  5.1400e-10    9.184e-06    1.207e-05  
  5.1450e-10    9.142e-06    1.201e-05  
  5.1500e-10    9.100e-06    1.196e-05  
  5.1550e-10    9.058e-06    1.190e-05  
  5.1600e-10    9.017e-06    1.185e-05  
  5.1650e-10    8.975e-06    1.180e-05  
  5.1700e-10    8.934e-06    1.175e-05  
  5.1750e-10    8.893e-06    1.169e-05  
  5.1800e-10    8.852e-06    1.164e-05  
  5.1850e-10    8.811e-06    1.159e-05  
  5.1900e-10    8.770e-06    1.154e-05  
  5.1950e-10    8.730e-06    1.148e-05  
  5.2000e-10    8.689e-06    1.143e-05  
  5.2050e-10    8.649e-06    1.138e-05  
  5.2100e-10    8.609e-06    1.133e-05  
  5.2150e-10    8.570e-06    1.128e-05  
  5.2200e-10    8.530e-06    1.123e-05  
  5.2250e-10    8.490e-06    1.118e-05  
  5.2300e-10    8.451e-06    1.113e-05  
  5.2350e-10    8.412e-06    1.108e-05  
  5.2400e-10    8.373e-06    1.103e-05  
  5.2450e-10    8.334e-06    1.098e-05  
  5.2500e-10    8.296e-06    1.093e-05  
  5.2550e-10    8.257e-06    1.088e-05  
  5.2600e-10    8.219e-06    1.083e-05  
  5.2650e-10    8.181e-06    1.078e-05  
  5.2700e-10    8.143e-06    1.073e-05  
  5.2750e-10    8.105e-06    1.068e-05  
  5.2800e-10    8.067e-06    1.063e-05  
  5.2850e-10    8.030e-06    1.058e-05  
  5.2900e-10    7.993e-06    1.054e-05  
  5.2950e-10    7.956e-06    1.049e-05  
  5.3000e-10    7.919e-06    1.044e-05  
  5.3050e-10    7.882e-06    1.039e-05  
  5.3100e-10    7.845e-06    1.035e-05  
  5.3150e-10    7.809e-06    1.030e-05  
  5.3200e-10    7.772e-06    1.025e-05  
  5.3250e-10    7.736e-06    1.021e-05  
  5.3300e-10    7.700e-06    1.016e-05  
  5.3350e-10    7.664e-06    1.011e-05  
  5.3400e-10    7.628e-06    1.007e-05  
  5.3450e-10    7.593e-06    1.002e-05  
  5.3500e-10    7.557e-06    9.976e-06  
  5.3550e-10    7.522e-06    9.930e-06  
  5.3600e-10    7.487e-06    9.885e-06  
  5.3650e-10    7.452e-06    9.840e-06  
  5.3700e-10    7.417e-06    9.795e-06  
  5.3750e-10    7.383e-06    9.750e-06  
  5.3800e-10    7.348e-06    9.705e-06  
  5.3850e-10    7.314e-06    9.661e-06  
  5.3900e-10    7.279e-06    9.617e-06  
  5.3950e-10    7.245e-06    9.573e-06  
  5.4000e-10    7.211e-06    9.529e-06  
  5.4050e-10    7.178e-06    9.485e-06  
  5.4100e-10    7.144e-06    9.442e-06  
  5.4150e-10    7.111e-06    9.398e-06  
  5.4200e-10    7.077e-06    9.355e-06  
  5.4250e-10    7.044e-06    9.312e-06  
  5.4300e-10    7.011e-06    9.269e-06  
  5.4350e-10    6.978e-06    9.227e-06  
  5.4400e-10    6.945e-06    9.184e-06  
  5.4450e-10    6.913e-06    9.142e-06  
  5.4500e-10    6.880e-06    9.100e-06  
  5.4550e-10    6.848e-06    9.058e-06  
  5.4600e-10    6.816e-06    9.017e-06  
  5.4650e-10    6.784e-06    8.975e-06  
  5.4700e-10    6.752e-06    8.934e-06  
  5.4750e-10    6.720e-06    8.893e-06  
  5.4800e-10    6.689e-06    8.852e-06  
  5.4850e-10    6.657e-06    8.811e-06  
  5.4900e-10    6.626e-06    8.770e-06  
  5.4950e-10    6.595e-06    8.730e-06  
  5.5000e-10    6.564e-06    8.689e-06  
  5.5050e-10    6.533e-06    8.649e-06  
  5.5100e-10    6.502e-06    8.609e-06  
  5.5150e-10    6.471e-06    8.570e-06  
  5.5200e-10    6.441e-06    8.530e-06  
  5.5250e-10    6.410e-06    8.490e-06  
  5.5300e-10    6.380e-06    8.451e-06  
  5.5350e-10    6.350e-06    8.412e-06  
  5.5400e-10    6.320e-06    8.373e-06  
  5.5450e-10    6.290e-06    8.334e-06  
  5.5500e-10    6.261e-06    8.296e-06  
  5.5550e-10    6.231e-06    8.257e-06  
  5.5600e-10    6.202e-06    8.219e-06  
  5.5650e-10    6.172e-06    8.181e-06  
  5.5700e-10    6.143e-06    8.143e-06  
  5.5750e-10    6.114e-06    8.105e-06  
  5.5800e-10    6.085e-06    8.067e-06  
  5.5850e-10    6.056e-06    8.030e-06  
  5.5900e-10    6.028e-06    7.993e-06  
  5.5950e-10    5.999e-06    7.956e-06  
  5.6000e-10    5.971e-06    7.919e-06  
  5.6050e-10    5.942e-06    7.882e-06  
  5.6100e-10    5.914e-06    7.845e-06  
  5.6150e-10    5.886e-06    7.809e-06  
  5.6200e-10    5.858e-06    7.772e-06  
  5.6250e-10    5.830e-06    7.736e-06  
  5.6300e-10    5.803e-06    7.700e-06  
  5.6350e-10    5.775e-06    7.664e-06  
  5.6400e-10    5.748e-06    7.628e-06  
  5.6450e-10    5.721e-06    7.593e-06  
  5.6500e-10    5.693e-06    7.557e-06  
  5.6550e-10    5.666e-06    7.522e-06  
  5.6600e-10    5.639e-06    7.487e-06  
  5.6650e-10    5.613e-06    7.452e-06  
  5.6700e-10    5.586e-06    7.417e-06  
  5.6750e-10    5.559e-06    7.383e-06  
  5.6800e-10    5.533e-06    7.348e-06  
  5.6850e-10    5.507e-06    7.314e-06  
  5.6900e-10    5.480e-06    7.279e-06  
  5.6950e-10    5.454e-06    7.245e-06  
  5.7000e-10    5.428e-06    7.211e-06  
  5.7050e-10    5.403e-06    7.178e-06  
  5.7100e-10    5.377e-06    7.144e-06  
  5.7150e-10    5.351e-06    7.111e-06  
  5.7200e-10    5.326e-06    7.077e-06  
  5.7250e-10    5.300e-06    7.044e-06  
  5.7300e-10    5.275e-06    7.011e-06  
  5.7350e-10    5.250e-06    6.978e-06  
  5.7400e-10    5.225e-06    6.945e-06  
  5.7450e-10    5.200e-06    6.913e-06  
  5.7500e-10    5.175e-06    6.880e-06  
  5.7550e-10    5.150e-06    6.848e-06  
  5.7600e-10    5.126e-06    6.816e-06  
  5.7650e-10    5.101e-06    6.784e-06  
  5.7700e-10    5.077e-06    6.752e-06  
  5.7750e-10    5.053e-06    6.720e-06  
  5.7800e-10    5.028e-06    6.689e-06  
  5.7850e-10    5.004e-06    6.657e-06  
  5.7900e-10    4.981e-06    6.626e-06  
  5.7950e-10    4.957e-06    6.595e-06  
  5.8000e-10    4.933e-06    6.564e-06  
  5.8050e-10    4.909e-06    6.533e-06  
  5.8100e-10    4.886e-06    6.502e-06  
  5.8150e-10    4.862e-06    6.471e-06  
  5.8200e-10    4.839e-06    6.441e-06  
  5.8250e-10    4.816e-06    6.410e-06  
  5.8300e-10    4.793e-06    6.380e-06  
  5.8350e-10    4.770e-06    6.350e-06  
  5.8400e-10    4.747e-06    6.320e-06  
  5.8450e-10    4.724e-06    6.290e-06  
  5.8500e-10    4.702e-06    6.261e-06  
  5.8550e-10    4.679e-06    6.231e-06  
  5.8600e-10    4.657e-06    6.202e-06  
  5.8650e-10    4.634e-06    6.172e-06  
  5.8700e-10    4.612e-06    6.143e-06  
  5.8750e-10    4.590e-06    6.114e-06  
  5.8800e-10    4.568e-06    6.085e-06  
  5.8850e-10    4.546e-06    6.056e-06  
  5.8900e-10    4.524e-06    6.028e-06  
  5.8950e-10    4.502e-06    5.999e-06  
  5.9000e-10    4.481e-06    5.971e-06  
  5.9050e-10    4.459e-06    5.942e-06  
  5.9100e-10    4.438e-06    5.914e-06  
  5.9150e-10    4.416e-06    5.886e-06  
  5.9200e-10    4.395e-06    5.858e-06  
  5.9250e-10    4.374e-06    5.830e-06  
  5.9300e-10    4.353e-06    5.803e-06  
  5.9350e-10    4.332e-06    5.775e-06  
  5.9400e-10    4.311e-06    5.748e-06  
  5.9450e-10    4.290e-06    5.721e-06  
  5.9500e-10    4.270e-06    5.693e-06  
  5.9550e-10    4.249e-06    5.666e-06  
  5.9600e-10    4.229e-06    5.639e-06  
  5.9650e-10    4.208e-06    5.613e-06  
  5.9700e-10    4.188e-06    5.586e-06  
  5.9750e-10    4.168e-06    5.559e-06  
  5.9800e-10    4.148e-06    5.533e-06  
  5.9850e-10    4.128e-06    5.507e-06  
  5.9900e-10    4.108e-06    5.480e-06  
  5.9950e-10    4.088e-06    5.454e-06  
  6.0000e-10    4.068e-06    5.428e-06  
  6.0050e-10    4.048e-06    5.403e-06  
  6.0100e-10    4.029e-06    5.377e-06  
  6.0150e-10    4.009e-06    5.351e-06  
  6.0200e-10    3.990e-06    5.326e-06  
  6.0250e-10    3.971e-06    5.300e-06  
  6.0300e-10    3.952e-06    5.275e-06  
  6.0350e-10    3.933e-06    5.250e-06  
  6.0400e-10    3.913e-06    5.225e-06  
  6.0450e-10    3.895e-06    5.200e-06  
  6.0500e-10    3.876e-06    5.175e-06  
  6.0550e-10    3.857e-06    5.150e-06  
  6.0600e-10    3.838e-06    5.126e-06  
  6.0650e-10    3.820e-06    5.101e-06  
  6.0700e-10    3.801e-06    5.077e-06  
  6.0750e-10    3.783e-06    5.053e-06  
  6.0800e-10    3.764e-06    5.028e-06  
  6.0850e-10    3.746e-06    5.004e-06  
  6.0900e-10    3.728e-06    4.981e-06  
  6.0950e-10    3.710e-06    4.957e-06  
  6.1000e-10    3.692e-06    4.933e-06  
  6.1050e-10    3.674e-06    4.909e-06  
  6.1100e-10    3.656e-06    4.886e-06  
  6.1150e-10    3.639e-06    4.862e-06  
  6.1200e-10    3.621e-06    4.839e-06  
  6.1250e-10    3.603e-06    4.816e-06  
  6.1300e-10    3.586e-06    4.793e-06  
  6.1350e-10    3.568e-06    4.770e-06  
  6.1400e-10    3.551e-06    4.747e-06  
  6.1450e-10    3.534e-06    4.724e-06  
  6.1500e-10    3.517e-06    4.702e-06  
  6.1550e-10    3.500e-06    4.679e-06  
  6.1600e-10    3.483e-06    4.657e-06  
  6.1650e-10    3.466e-06    4.634e-06  
  6.1700e-10    3.449e-06    4.612e-06  
  6.1750e-10    3.432e-06    4.590e-06  
  6.1800e-10    3.415e-06    4.568e-06  
  6.1850e-10    3.399e-06    4.546e-06  
  6.1900e-10    3.382e-06    4.524e-06  
  6.1950e-10    3.366e-06    4.502e-06  
  6.2000e-10    3.349e-06    4.481e-06  
  6.2050e-10    3.333e-06    4.459e-06  
  6.2100e-10    3.317e-06    4.438e-06  
  6.2150e-10    3.301e-06    4.416e-06  
  6.2200e-10    3.285e-06    4.395e-06  
  6.2250e-10    3.269e-06    4.374e-06  
  6.2300e-10    3.253e-06    4.353e-06  
  6.2350e-10    3.237e-06    4.332e-06  
  6.2400e-10    3.221e-06    4.311e-06  
  6.2450e-10    3.205e-06    4.290e-06  
  6.2500e-10    3.190e-06    4.270e-06  
  6.2550e-10    3.174e-06    4.249e-06  
  6.2600e-10    3.159e-06    4.229e-06  
  6.2650e-10    3.143e-06    4.208e-06  
  6.2700e-10    3.128e-06    4.188e-06  
  6.2750e-10    3.113e-06    4.168e-06  
  6.2800e-10    3.098e-06    4.148e-06  
  6.2850e-10    3.082e-06    4.128e-06  
  6.2900e-10    3.067e-06    4.108e-06  
  6.2950e-10    3.052e-06    4.088e-06  
  6.3000e-10    3.037e-06    4.068e-06  
  6.3050e-10    3.023e-06    4.048e-06  
  6.3100e-10    3.008e-06    4.029e-06  
  6.3150e-10    2.993e-06    4.009e-06  
  6.3200e-10    2.979e-06    3.990e-06  
  6.3250e-10    2.964e-06    3.971e-06  
  6.3300e-10    2.949e-06    3.952e-06  
  6.3350e-10    2.935e-06    3.933e-06  
  6.3400e-10    2.921e-06    3.913e-06  
  6.3450e-10    2.906e-06    3.895e-06  
  6.3500e-10    2.892e-06    3.876e-06  
  6.3550e-10    2.878e-06    3.857e-06  
  6.3600e-10    2.864e-06    3.838e-06  
  6.3650e-10    2.850e-06    3.820e-06  
  6.3700e-10    2.836e-06    3.801e-06  
  6.3750e-10    2.822e-06    3.783e-06  
  6.3800e-10    2.808e-06    3.764e-06  
  6.3850e-10    2.795e-06    3.746e-06  
  6.3900e-10    2.781e-06    3.728e-06  
  6.3950e-10    2.767e-06    3.710e-06  
  6.4000e-10    2.754e-06    3.692e-06  
  6.4050e-10    2.740e-06    3.674e-06  
  6.4100e-10    2.727e-06    3.656e-06  
  6.4150e-10    2.713e-06    3.639e-06  
  6.4200e-10    2.700e-06    3.621e-06  
  6.4250e-10    2.687e-06    3.603e-06  
  6.4300e-10    2.674e-06    3.586e-06  
  6.4350e-10    2.660e-06    3.568e-06  
  6.4400e-10    2.647e-06    3.551e-06  
  6.4450e-10    2.634e-06    3.534e-06  
  6.4500e-10    2.621e-06    3.517e-06  
  6.4550e-10    2.609e-06    3.500e-06  
  6.4600e-10    2.596e-06    3.483e-06  
  6.4650e-10    2.583e-06    3.466e-06  
  6.4700e-10    2.570e-06    3.449e-06  
  6.4750e-10    2.558e-06    3.432e-06  
  6.4800e-10    2.545e-06    3.415e-06  
  6.4850e-10    2.533e-06    3.399e-06  
  6.4900e-10    2.520e-06    3.382e-06  
  6.4950e-10    2.508e-06    3.366e-06  
  6.5000e-10    2.495e-06    3.349e-06  
  6.5050e-10    2.483e-06    3.333e-06  
  6.5100e-10    2.471e-06    3.317e-06  
  6.5150e-10    2.459e-06    3.301e-06  
  6.5200e-10    2.447e-06    3.285e-06  
  6.5250e-10    2.435e-06    3.269e-06  
  6.5300e-10    2.423e-06    3.253e-06  
  6.5350e-10    2.411e-06    3.237e-06  
  6.5400e-10    2.399e-06    3.221e-06  
  6.5450e-10    2.387e-06    3.205e-06  
  6.5500e-10    2.375e-06    3.190e-06  
  6.5550e-10    2.364e-06    3.174e-06  
  6.5600e-10    2.352e-06    3.159e-06  
  6.5650e-10    2.340e-06    3.143e-06  
  6.5700e-10    2.329e-06    3.128e-06  
  6.5750e-10    2.317e-06    3.113e-06  
  6.5800e-10    2.306e-06    3.098e-06  
  6.5850e-10    2.295e-06    3.082e-06  
  6.5900e-10    2.283e-06    3.067e-06  
  6.5950e-10    2.272e-06    3.052e-06  
  6.6000e-10    2.261e-06    3.037e-06  
  6.6050e-10    2.250e-06    3.023e-06  
  6.6100e-10    2.239e-06    3.008e-06  
  6.6150e-10    2.228e-06    2.993e-06  
  6.6200e-10    2.217e-06    2.979e-06  
  6.6250e-10    2.206e-06    2.964e-06  
  6.6300e-10    2.195e-06    2.949e-06  
  6.6350e-10    2.184e-06    2.935e-06  
  6.6400e-10    2.173e-06    2.921e-06  
  6.6450e-10    2.162e-06    2.906e-06  
  6.6500e-10    2.152e-06    2.892e-06  
  6.6550e-10    2.141e-06    2.878e-06  
  6.6600e-10    2.130e-06    2.864e-06  
  6.6650e-10    2.120e-06    2.850e-06  
  6.6700e-10    2.109e-06    2.836e-06  
  6.6750e-10    2.099e-06    2.822e-06  
  6.6800e-10    2.089e-06    2.808e-06  
  6.6850e-10    2.078e-06    2.795e-06  
  6.6900e-10    2.068e-06    2.781e-06  
  6.6950e-10    2.058e-06    2.767e-06  
  6.7000e-10    2.048e-06    2.754e-06  
  6.7050e-10    2.038e-06    2.740e-06  
  6.7100e-10    2.027e-06    2.727e-06  
  6.7150e-10    2.017e-06    2.713e-06  
  6.7200e-10    2.007e-06    2.700e-06  
  6.7250e-10    1.997e-06    2.687e-06  
  6.7300e-10    1.988e-06    2.674e-06  
  6.7350e-10    1.978e-06    2.660e-06  
  6.7400e-10    1.968e-06    2.647e-06  
  6.7450e-10    1.958e-06    2.634e-06  
  6.7500e-10    1.948e-06    2.621e-06  
  6.7550e-10    1.939e-06    2.609e-06  
  6.7600e-10    1.929e-06    2.596e-06  
  6.7650e-10    1.920e-06    2.583e-06  
  6.7700e-10    1.910e-06    2.570e-06  
  6.7750e-10    1.901e-06    2.558e-06  
  6.7800e-10    1.891e-06    2.545e-06  
  6.7850e-10    1.882e-06    2.533e-06  
  6.7900e-10    1.873e-06    2.520e-06  
  6.7950e-10    1.863e-06    2.508e-06  
  6.8000e-10    1.854e-06    2.495e-06  
  6.8050e-10    1.845e-06    2.483e-06  
  6.8100e-10    1.836e-06    2.471e-06  
  6.8150e-10    1.827e-06    2.459e-06  
  6.8200e-10    1.817e-06    2.447e-06  
  6.8250e-10    1.808e-06    2.435e-06  
  6.8300e-10    1.799e-06    2.423e-06  
  6.8350e-10    1.791e-06    2.411e-06  
  6.8400e-10    1.782e-06    2.399e-06  
  6.8450e-10    1.773e-06    2.387e-06  
  6.8500e-10    1.764e-06    2.375e-06  
  6.8550e-10    1.755e-06    2.364e-06  
  6.8600e-10    1.747e-06    2.352e-06  
  6.8650e-10    1.738e-06    2.340e-06  
  6.8700e-10    1.729e-06    2.329e-06  
  6.8750e-10    1.721e-06    2.317e-06  
  6.8800e-10    1.712e-06    2.306e-06  
  6.8850e-10    1.704e-06    2.295e-06  
  6.8900e-10    1.695e-06    2.283e-06  
  6.8950e-10    1.687e-06    2.272e-06  
  6.9000e-10    1.678e-06    2.261e-06  
  6.9050e-10    1.670e-06    2.250e-06  
  6.9100e-10    1.662e-06    2.239e-06  
  6.9150e-10    1.653e-06    2.228e-06  
  6.9200e-10    1.645e-06    2.217e-06  
  6.9250e-10    1.637e-06    2.206e-06  
  6.9300e-10    1.629e-06    2.195e-06  
  6.9350e-10    1.621e-06    2.184e-06  
  6.9400e-10    1.613e-06    2.173e-06  
  6.9450e-10    1.605e-06    2.162e-06  
  6.9500e-10    1.597e-06    2.152e-06  
  6.9550e-10    1.589e-06    2.141e-06  
  6.9600e-10    1.581e-06    2.130e-06  
  6.9650e-10    1.573e-06    2.120e-06  
  6.9700e-10    1.565e-06    2.109e-06  
  6.9750e-10    1.557e-06    2.099e-06  
  6.9800e-10    1.549e-06    2.089e-06  
  6.9850e-10    1.542e-06    2.078e-06  
  6.9900e-10    1.534e-06    2.068e-06  
  6.9950e-10    1.526e-06    2.058e-06  
  7.0000e-10    1.519e-06    2.048e-06  
  7.0050e-10    1.511e-06    2.038e-06  
  7.0100e-10    1.504e-06    2.027e-06  
  7.0150e-10    1.496e-06    2.017e-06  
  7.0200e-10    1.489e-06    2.007e-06  
  7.0250e-10    1.481e-06    1.997e-06  
  7.0300e-10    1.474e-06    1.988e-06  
  7.0350e-10    1.466e-06    1.978e-06  
  7.0400e-10    1.459e-06    1.968e-06  
  7.0450e-10    1.452e-06    1.958e-06  
  7.0500e-10    1.445e-06    1.948e-06  
  7.0550e-10    1.437e-06    1.939e-06  
  7.0600e-10    1.430e-06    1.929e-06  
  7.0650e-10    1.423e-06    1.920e-06  
  7.0700e-10    1.416e-06    1.910e-06  
  7.0750e-10    1.409e-06    1.901e-06  
  7.0800e-10    1.402e-06    1.891e-06  
  7.0850e-10    1.395e-06    1.882e-06  
  7.0900e-10    1.388e-06    1.873e-06  
  7.0950e-10    1.381e-06    1.863e-06  
  7.1000e-10    1.374e-06    1.854e-06  
  7.1050e-10    1.367e-06    1.845e-06  
  7.1100e-10    1.360e-06    1.836e-06  
  7.1150e-10    1.354e-06    1.827e-06  
  7.1200e-10    1.347e-06    1.817e-06  
  7.1250e-10    1.340e-06    1.808e-06  
  7.1300e-10    1.333e-06    1.799e-06  
  7.1350e-10    1.327e-06    1.791e-06  
  7.1400e-10    1.320e-06    1.782e-06  
  7.1450e-10    1.313e-06    1.773e-06  
  7.1500e-10    1.307e-06    1.764e-06  
  7.1550e-10    1.300e-06    1.755e-06  
  7.1600e-10    1.294e-06    1.747e-06  
  7.1650e-10    1.287e-06    1.738e-06  
  7.1700e-10    1.281e-06    1.729e-06  
  7.1750e-10    1.274e-06    1.721e-06  
  7.1800e-10    1.268e-06    1.712e-06  
  7.1850e-10    1.262e-06    1.704e-06  
  7.1900e-10    1.255e-06    1.695e-06  
  7.1950e-10    1.249e-06    1.687e-06  
  7.2000e-10    1.243e-06    1.678e-06  
  7.2050e-10    1.237e-06    1.670e-06  
  7.2100e-10    1.230e-06    1.662e-06  
  7.2150e-10    1.224e-06    1.653e-06  
  7.2200e-10    1.218e-06    1.645e-06  
  7.2250e-10    1.212e-06    1.637e-06  
  7.2300e-10    1.206e-06    1.629e-06  
  7.2350e-10    1.200e-06    1.621e-06  
  7.2400e-10    1.194e-06    1.613e-06  
  7.2450e-10    1.188e-06    1.605e-06  
  7.2500e-10    1.182e-06    1.597e-06  
  7.2550e-10    1.176e-06    1.589e-06  
  7.2600e-10    1.170e-06    1.581e-06  
  7.2650e-10    1.164e-06    1.573e-06  
  7.2700e-10    1.158e-06    1.565e-06  
  7.2750e-10    1.153e-06    1.557e-06  
  7.2800e-10    1.147e-06    1.549e-06  
  7.2850e-10    1.141e-06    1.542e-06  
  7.2900e-10    1.135e-06    1.534e-06  
  7.2950e-10    1.130e-06    1.526e-06  
  7.3000e-10    1.124e-06    1.519e-06  
  7.3050e-10    1.118e-06    1.511e-06  
  7.3100e-10    1.113e-06    1.504e-06  
  7.3150e-10    1.107e-06    1.496e-06  
  7.3200e-10    1.102e-06    1.489e-06  
  7.3250e-10    1.096e-06    1.481e-06  
  7.3300e-10    1.091e-06    1.474e-06  
  7.3350e-10    1.085e-06    1.466e-06  
  7.3400e-10    1.080e-06    1.459e-06  
  7.3450e-10    1.074e-06    1.452e-06  
  7.3500e-10    1.069e-06    1.445e-06  
  7.3550e-10    1.063e-06    1.437e-06  
  7.3600e-10    1.058e-06    1.430e-06  
  7.3650e-10    1.053e-06    1.423e-06  
  7.3700e-10    1.047e-06    1.416e-06  
  7.3750e-10    1.042e-06    1.409e-06  
  7.3800e-10    1.037e-06    1.402e-06  
  7.3850e-10    1.032e-06    1.395e-06  
  7.3900e-10    1.027e-06    1.388e-06  
  7.3950e-10    1.021e-06    1.381e-06  
  7.4000e-10    1.016e-06    1.374e-06  
  7.4050e-10    1.011e-06    1.367e-06  
  7.4100e-10    1.006e-06    1.360e-06  
  7.4150e-10    1.001e-06    1.354e-06  
  7.4200e-10    9.959e-07    1.347e-06  
  7.4250e-10    9.909e-07    1.340e-06  
  7.4300e-10    9.859e-07    1.333e-06  
  7.4350e-10    9.809e-07    1.327e-06  
  7.4400e-10    9.760e-07    1.320e-06  
  7.4450e-10    9.711e-07    1.313e-06  
  7.4500e-10    9.662e-07    1.307e-06  
  7.4550e-10    9.613e-07    1.300e-06  
  7.4600e-10    9.565e-07    1.294e-06  
  7.4650e-10    9.516e-07    1.287e-06  
  7.4700e-10    9.469e-07    1.281e-06  
  7.4750e-10    9.421e-07    1.274e-06  
  7.4800e-10    9.373e-07    1.268e-06  
  7.4850e-10    9.326e-07    1.262e-06  
  7.4900e-10    9.279e-07    1.255e-06  
  7.4950e-10    9.232e-07    1.249e-06  
  7.5000e-10    9.186e-07    1.243e-06  
  7.5050e-10    9.139e-07    1.237e-06  
  7.5100e-10    9.093e-07    1.230e-06  
  7.5150e-10    9.047e-07    1.224e-06  
  7.5200e-10    9.002e-07    1.218e-06  
  7.5250e-10    8.956e-07    1.212e-06  
  7.5300e-10    8.911e-07    1.206e-06  
  7.5350e-10    8.866e-07    1.200e-06  
  7.5400e-10    8.822e-07    1.194e-06  
  7.5450e-10    8.777e-07    1.188e-06  
  7.5500e-10    8.733e-07    1.182e-06  
  7.5550e-10    8.689e-07    1.176e-06  
  7.5600e-10    8.645e-07    1.170e-06  
  7.5650e-10    8.601e-07    1.164e-06  
  7.5700e-10    8.558e-07    1.158e-06  
  7.5750e-10    8.515e-07    1.153e-06  
  7.5800e-10    8.472e-07    1.147e-06  
  7.5850e-10    8.429e-07    1.141e-06  
  7.5900e-10    8.386e-07    1.135e-06  
  7.5950e-10    8.344e-07    1.130e-06  
  7.6000e-10    8.302e-07    1.124e-06  
  7.6050e-10    8.260e-07    1.118e-06  
  7.6100e-10    8.218e-07    1.113e-06  
  7.6150e-10    8.176e-07    1.107e-06  
  7.6200e-10    8.135e-07    1.102e-06  
  7.6250e-10    8.094e-07    1.096e-06  
  7.6300e-10    8.053e-07    1.091e-06  
  7.6350e-10    8.012e-07    1.085e-06  
  7.6400e-10    7.972e-07    1.080e-06  
  7.6450e-10    7.932e-07    1.074e-06  
  7.6500e-10    7.891e-07    1.069e-06  
  7.6550e-10    7.852e-07    1.063e-06  
  7.6600e-10    7.812e-07    1.058e-06  
  7.6650e-10    7.772e-07    1.053e-06  
  7.6700e-10    7.733e-07    1.047e-06  
  7.6750e-10    7.694e-07    1.042e-06  
  7.6800e-10    7.655e-07    1.037e-06  
  7.6850e-10    7.616e-07    1.032e-06  
  7.6900e-10    7.578e-07    1.027e-06  
  7.6950e-10    7.539e-07    1.021e-06  
  7.7000e-10    7.501e-07    1.016e-06  
  7.7050e-10    7.463e-07    1.011e-06  
  7.7100e-10    7.425e-07    1.006e-06  
  7.7150e-10    7.388e-07    1.001e-06  
  7.7200e-10    7.350e-07    9.959e-07  
  7.7250e-10    7.313e-07    9.909e-07  
  7.7300e-10    7.276e-07    9.859e-07  
  7.7350e-10    7.239e-07    9.809e-07  
  7.7400e-10    7.203e-07    9.760e-07  
[...]
  9.8000e-10    1.293e-07    1.767e-07  
  9.8050e-10    1.286e-07    1.758e-07  
  9.8100e-10    1.280e-07    1.749e-07  
  9.8150e-10    1.273e-07    1.740e-07  
  9.8200e-10    1.266e-07    1.731e-07  
  9.8250e-10    1.260e-07    1.722e-07  
  9.8300e-10    1.253e-07    1.713e-07  
  9.8350e-10    1.247e-07    1.704e-07  
  9.8400e-10    1.240e-07    1.695e-07  
  9.8450e-10    1.234e-07    1.686e-07  
  9.8500e-10    1.227e-07    1.677e-07  
  9.8550e-10    1.221e-07    1.669e-07  
  9.8600e-10    1.215e-07    1.660e-07  
  9.8650e-10    1.208e-07    1.651e-07  
  9.8700e-10    1.202e-07    1.643e-07  
  9.8750e-10    1.196e-07    1.634e-07  
  9.8800e-10    1.189e-07    1.626e-07  
  9.8850e-10    1.183e-07    1.617e-07  
  9.8900e-10    1.177e-07    1.609e-07  
  9.8950e-10    1.171e-07    1.601e-07  
  9.9000e-10    1.165e-07    1.592e-07  
  9.9050e-10    1.159e-07    1.584e-07  
  9.9100e-10    1.153e-07    1.576e-07  
  9.9150e-10    1.147e-07    1.568e-07  
  9.9200e-10    1.141e-07    1.560e-07  
  9.9250e-10    1.135e-07    1.552e-07  
  9.9300e-10    1.129e-07    1.543e-07  
  9.9350e-10    1.123e-07    1.535e-07  
  9.9400e-10    1.117e-07    1.527e-07  
  9.9450e-10    1.111e-07    1.520e-07  
  9.9500e-10    1.106e-07    1.512e-07  
  9.9550e-10    1.100e-07    1.504e-07  
  9.9600e-10    1.094e-07    1.496e-07  
  9.9650e-10    1.088e-07    1.488e-07  
  9.9700e-10    1.083e-07    1.481e-07  
  9.9750e-10    1.077e-07    1.473e-07  
  9.9800e-10    1.072e-07    1.465e-07  
  9.9850e-10    1.066e-07    1.458e-07  
  9.9900e-10    1.060e-07    1.450e-07  
  9.9950e-10    1.055e-07    1.442e-07  
  1.0000e-09    1.049e-07    1.435e-07  
  1.0005e-09    1.044e-07    1.428e-07  
  1.0010e-09    1.039e-07    1.420e-07  
  1.0015e-09    1.033e-07    1.413e-07  
  1.0020e-09    1.028e-07    1.405e-07  
  1.0025e-09    1.022e-07    1.398e-07  
  1.0030e-09    1.017e-07    1.391e-07  
  1.0035e-09    1.012e-07    1.384e-07  
  1.0040e-09    1.006e-07    1.376e-07  
  1.0045e-09    1.001e-07    1.369e-07  
  1.0050e-09    9.960e-08    1.362e-07  
  1.0055e-09    9.908e-08    1.355e-07  
  1.0060e-09    9.857e-08    1.348e-07  
  1.0065e-09    9.805e-08    1.341e-07  
  1.0070e-09    9.754e-08    1.334e-07  
  1.0075e-09    9.703e-08    1.327e-07  
  1.0080e-09    9.653e-08    1.320e-07  
  1.0085e-09    9.602e-08    1.313e-07  
  1.0090e-09    9.552e-08    1.307e-07  
  1.0095e-09    9.503e-08    1.300e-07  
  1.0100e-09    9.453e-08    1.293e-07  
  1.0105e-09    9.404e-08    1.286e-07  
  1.0110e-09    9.355e-08    1.280e-07  
  1.0115e-09    9.306e-08    1.273e-07  
  1.0120e-09    9.257e-08    1.266e-07  
  1.0125e-09    9.209e-08    1.260e-07  
  1.0130e-09    9.161e-08    1.253e-07  
  1.0135e-09    9.113e-08    1.247e-07  
  1.0140e-09    9.066e-08    1.240e-07  
  1.0145e-09    9.019e-08    1.234e-07  
  1.0150e-09    8.972e-08    1.227e-07  
  1.0155e-09    8.925e-08    1.221e-07  
  1.0160e-09    8.878e-08    1.215e-07  
  1.0165e-09    8.832e-08    1.208e-07  
  1.0170e-09    8.786e-08    1.202e-07  
  1.0175e-09    8.740e-08    1.196e-07  
  1.0180e-09    8.695e-08    1.189e-07  
  1.0185e-09    8.649e-08    1.183e-07  
  1.0190e-09    8.604e-08    1.177e-07  
  1.0195e-09    8.559e-08    1.171e-07  
  1.0200e-09    8.514e-08    1.165e-07  
  1.0205e-09    8.470e-08    1.159e-07  
  1.0210e-09    8.426e-08    1.153e-07  
  1.0215e-09    8.382e-08    1.147e-07  
  1.0220e-09    8.338e-08    1.141e-07  
  1.0225e-09    8.295e-08    1.135e-07  
  1.0230e-09    8.251e-08    1.129e-07  
  1.0235e-09    8.208e-08    1.123e-07  
  1.0240e-09    8.166e-08    1.117e-07  
  1.0245e-09    8.123e-08    1.111e-07  
  1.0250e-09    8.080e-08    1.106e-07  
  1.0255e-09    8.038e-08    1.100e-07  
  1.0260e-09    7.996e-08    1.094e-07  
  1.0265e-09    7.955e-08    1.088e-07  
  1.0270e-09    7.913e-08    1.083e-07  
  1.0275e-09    7.872e-08    1.077e-07  
  1.0280e-09    7.831e-08    1.072e-07  
  1.0285e-09    7.790e-08    1.066e-07  
  1.0290e-09    7.749e-08    1.060e-07  
  1.0295e-09    7.709e-08    1.055e-07  
  1.0300e-09    7.668e-08    1.049e-07  
  1.0305e-09    7.628e-08    1.044e-07  
  1.0310e-09    7.589e-08    1.039e-07  
  1.0315e-09    7.549e-08    1.033e-07  
  1.0320e-09    7.510e-08    1.028e-07  
  1.0325e-09    7.470e-08    1.022e-07  
  1.0330e-09    7.431e-08    1.017e-07  
  1.0335e-09    7.393e-08    1.012e-07  
  1.0340e-09    7.354e-08    1.006e-07  
  1.0345e-09    7.315e-08    1.001e-07  
  1.0350e-09    7.277e-08    9.960e-08  
  1.0355e-09    7.239e-08    9.908e-08  
  1.0360e-09    7.201e-08    9.857e-08  
  1.0365e-09    7.164e-08    9.805e-08  
  1.0370e-09    7.126e-08    9.754e-08  
  1.0375e-09    7.089e-08    9.703e-08  
  1.0380e-09    7.052e-08    9.653e-08  
  1.0385e-09    7.015e-08    9.602e-08  
  1.0390e-09    6.979e-08    9.552e-08  
  1.0395e-09    6.942e-08    9.503e-08  
  1.0400e-09    6.906e-08    9.453e-08  
  1.0405e-09    6.870e-08    9.404e-08  
  1.0410e-09    6.834e-08    9.355e-08  
  1.0415e-09    6.798e-08    9.306e-08  
  1.0420e-09    6.763e-08    9.257e-08  
  1.0425e-09    6.727e-08    9.209e-08  
  1.0430e-09    6.692e-08    9.161e-08  
  1.0435e-09    6.657e-08    9.113e-08  
  1.0440e-09    6.622e-08    9.066e-08  
  1.0445e-09    6.588e-08    9.019e-08  
  1.0450e-09    6.553e-08    8.972e-08  
  1.0455e-09    6.519e-08    8.925e-08  
  1.0460e-09    6.485e-08    8.878e-08  
  1.0465e-09    6.451e-08    8.832e-08  
  1.0470e-09    6.417e-08    8.786e-08  
  1.0475e-09    6.384e-08    8.740e-08  
  1.0480e-09    6.350e-08    8.695e-08  
  1.0485e-09    6.317e-08    8.649e-08  
  1.0490e-09    6.284e-08    8.604e-08  
  1.0495e-09    6.251e-08    8.559e-08  
  1.0500e-09    6.219e-08    8.514e-08  
  1.0505e-09    6.186e-08    8.470e-08  
  1.0510e-09    6.154e-08    8.426e-08  
  1.0515e-09    6.122e-08    8.382e-08  
  1.0520e-09    6.090e-08    8.338e-08  
  1.0525e-09    6.058e-08    8.295e-08  
  1.0530e-09    6.026e-08    8.251e-08  
  1.0535e-09    5.995e-08    8.208e-08  
  1.0540e-09    5.963e-08    8.166e-08  
  1.0545e-09    5.932e-08    8.123e-08  
  1.0550e-09    5.901e-08    8.080e-08  
  1.0555e-09    5.870e-08    8.038e-08  
  1.0560e-09    5.839e-08    7.996e-08  
  1.0565e-09    5.809e-08    7.955e-08  
  1.0570e-09    5.778e-08    7.913e-08  
  1.0575e-09    5.748e-08    7.872e-08  
  1.0580e-09    5.718e-08    7.831e-08  
  1.0585e-09    5.688e-08    7.790e-08  
  1.0590e-09    5.658e-08    7.749e-08  
  1.0595e-09    5.629e-08    7.709e-08  
  1.0600e-09    5.599e-08    7.668e-08  
  1.0605e-09    5.570e-08    7.628e-08  
  1.0610e-09    5.541e-08    7.589e-08  
  1.0615e-09    5.512e-08    7.549e-08  
  1.0620e-09    5.483e-08    7.510e-08  
  1.0625e-09    5.454e-08    7.470e-08  
  1.0630e-09    5.426e-08    7.431e-08  
  1.0635e-09    5.397e-08    7.393e-08  
  1.0640e-09    5.369e-08    7.354e-08  
  1.0645e-09    5.341e-08    7.315e-08  
  1.0650e-09    5.313e-08    7.277e-08  
  1.0655e-09    5.285e-08    7.239e-08  
  1.0660e-09    5.258e-08    7.201e-08  
  1.0665e-09    5.230e-08    7.164e-08  
  1.0670e-09    5.203e-08    7.126e-08  
  1.0675e-09    5.176e-08    7.089e-08  
  1.0680e-09    5.148e-08    7.052e-08  
  1.0685e-09    5.121e-08    7.015e-08  
  1.0690e-09    5.095e-08    6.979e-08  
  1.0695e-09    5.068e-08    6.942e-08  
  1.0700e-09    5.041e-08    6.906e-08  
  1.0705e-09    5.015e-08    6.870e-08  
  1.0710e-09    4.989e-08    6.834e-08  
  1.0715e-09    4.963e-08    6.798e-08  
  1.0720e-09    4.937e-08    6.763e-08  
  1.0725e-09    4.911e-08    6.727e-08  
  1.0730e-09    4.885e-08    6.692e-08  
  1.0735e-09    4.859e-08    6.657e-08  
  1.0740e-09    4.834e-08    6.622e-08  
  1.0745e-09    4.809e-08    6.588e-08  
  1.0750e-09    4.784e-08    6.553e-08  
  1.0755e-09    4.758e-08    6.519e-08  
  1.0760e-09    4.734e-08    6.485e-08  
  1.0765e-09    4.709e-08    6.451e-08  
  1.0770e-09    4.684e-08    6.417e-08  
  1.0775e-09    4.660e-08    6.384e-08  
  1.0780e-09    4.635e-08    6.350e-08  
  1.0785e-09    4.611e-08    6.317e-08  
  1.0790e-09    4.587e-08    6.284e-08  
  1.0795e-09    4.563e-08    6.251e-08  
  1.0800e-09    4.539e-08    6.219e-08  
  1.0805e-09    4.515e-08    6.186e-08  
  1.0810e-09    4.491e-08    6.154e-08  
  1.0815e-09    4.468e-08    6.122e-08  
  1.0820e-09    4.444e-08    6.090e-08  
  1.0825e-09    4.421e-08    6.058e-08  
  1.0830e-09    4.398e-08    6.026e-08  
  1.0835e-09    4.375e-08    5.995e-08  
  1.0840e-09    4.352e-08    5.963e-08  
  1.0845e-09    4.329e-08    5.932e-08  
  1.0850e-09    4.306e-08    5.901e-08  
  1.0855e-09    4.284e-08    5.870e-08  
  1.0860e-09    4.261e-08    5.839e-08  
  1.0865e-09    4.239e-08    5.809e-08  
  1.0870e-09    4.217e-08    5.778e-08  
  1.0875e-09    4.195e-08    5.748e-08  
  1.0880e-09    4.173e-08    5.718e-08  
  1.0885e-09    4.151e-08    5.688e-08  
  1.0890e-09    4.129e-08    5.658e-08  
  1.0895e-09    4.107e-08    5.629e-08  
  1.0900e-09    4.086e-08    5.599e-08  
  1.0905e-09    4.064e-08    5.570e-08  
  1.0910e-09    4.043e-08    5.541e-08  
  1.0915e-09    4.022e-08    5.512e-08  
  1.0920e-09    4.001e-08    5.483e-08  
  1.0925e-09    3.980e-08    5.454e-08  
  1.0930e-09    3.959e-08    5.426e-08  
  1.0935e-09    3.938e-08    5.397e-08  
  1.0940e-09    3.918e-08    5.369e-08  
  1.0945e-09    3.897e-08    5.341e-08  
  1.0950e-09    3.877e-08    5.313e-08  
  1.0955e-09    3.856e-08    5.285e-08  
  1.0960e-09    3.836e-08    5.258e-08  
  1.0965e-09    3.816e-08    5.230e-08  
  1.0970e-09    3.796e-08    5.203e-08  
  1.0975e-09    3.776e-08    5.176e-08  
  1.0980e-09    3.756e-08    5.148e-08  
  1.0985e-09    3.736e-08    5.121e-08  
  1.0990e-09    3.717e-08    5.095e-08  
  1.0995e-09    3.697e-08    5.068e-08  
  1.1000e-09    3.678e-08    5.041e-08  
  1.1005e-09    3.659e-08    5.015e-08  
  1.1010e-09    3.639e-08    4.989e-08  
  1.1015e-09    3.620e-08    4.963e-08  
  1.1020e-09    3.601e-08    4.937e-08  
  1.1025e-09    3.582e-08    4.911e-08  
  1.1030e-09    3.564e-08    4.885e-08  
  1.1035e-09    3.545e-08    4.859e-08  
  1.1040e-09    3.526e-08    4.834e-08  
  1.1045e-09    3.508e-08    4.809e-08  
  1.1050e-09    3.489e-08    4.784e-08  
  1.1055e-09    3.471e-08    4.758e-08  
  1.1060e-09    3.453e-08    4.734e-08  
  1.1065e-09    3.435e-08    4.709e-08  
  1.1070e-09    3.417e-08    4.684e-08  
  1.1075e-09    3.399e-08    4.660e-08  
  1.1080e-09    3.381e-08    4.635e-08  
  1.1085e-09    3.363e-08    4.611e-08  
  1.1090e-09    3.345e-08    4.587e-08  
  1.1095e-09    3.328e-08    4.563e-08  
  1.1100e-09    3.310e-08    4.539e-08  
  1.1105e-09    3.293e-08    4.515e-08  
  1.1110e-09    3.276e-08    4.491e-08  
  1.1115e-09    3.259e-08    4.468e-08  
  1.1120e-09    3.241e-08    4.444e-08  
  1.1125e-09    3.224e-08    4.421e-08  
  1.1130e-09    3.207e-08    4.398e-08  
  1.1135e-09    3.191e-08    4.375e-08  
  1.1140e-09    3.174e-08    4.352e-08  
  1.1145e-09    3.157e-08    4.329e-08  
  1.1150e-09    3.141e-08    4.306e-08  
  1.1155e-09    3.124e-08    4.284e-08  
  1.1160e-09    3.108e-08    4.261e-08  
  1.1165e-09    3.091e-08    4.239e-08  
  1.1170e-09    3.075e-08    4.217e-08  
  1.1175e-09    3.059e-08    4.195e-08  
  1.1180e-09    3.043e-08    4.173e-08  
  1.1185e-09    3.027e-08    4.151e-08  
  1.1190e-09    3.011e-08    4.129e-08  
  1.1195e-09    2.995e-08    4.107e-08  
  1.1200e-09    2.979e-08    4.086e-08  
  1.1205e-09    2.964e-08    4.064e-08  
  1.1210e-09    2.948e-08    4.043e-08  
  1.1215e-09    2.933e-08    4.022e-08  
  1.1220e-09    2.917e-08    4.001e-08  
  1.1225e-09    2.902e-08    3.980e-08  
  1.1230e-09    2.887e-08    3.959e-08  
  1.1235e-09    2.872e-08    3.938e-08  
  1.1240e-09    2.857e-08    3.918e-08  
  1.1245e-09    2.841e-08    3.897e-08  
  1.1250e-09    2.827e-08    3.877e-08  
  1.1255e-09    2.812e-08    3.856e-08  
  1.1260e-09    2.797e-08    3.836e-08  
  1.1265e-09    2.782e-08    3.816e-08  
  1.1270e-09    2.768e-08    3.796e-08  
  1.1275e-09    2.753e-08    3.776e-08  
  1.1280e-09    2.739e-08    3.756e-08  
  1.1285e-09    2.724e-08    3.736e-08  
  1.1290e-09    2.710e-08    3.717e-08  
  1.1295e-09    2.696e-08    3.697e-08  
  1.1300e-09    2.681e-08    3.678e-08  
  1.1305e-09    2.667e-08    3.659e-08  
  1.1310e-09    2.653e-08    3.639e-08  
  1.1315e-09    2.639e-08    3.620e-08  
  1.1320e-09    2.625e-08    3.601e-08  
  1.1325e-09    2.612e-08    3.582e-08  
  1.1330e-09    2.598e-08    3.564e-08  
  1.1335e-09    2.584e-08    3.545e-08  
  1.1340e-09    2.571e-08    3.526e-08  
  1.1345e-09    2.557e-08    3.508e-08  
  1.1350e-09    2.544e-08    3.489e-08  
  1.1355e-09    2.530e-08    3.471e-08  
  1.1360e-09    2.517e-08    3.453e-08  
  1.1365e-09    2.504e-08    3.435e-08  
  1.1370e-09    2.491e-08    3.417e-08  
  1.1375e-09    2.478e-08    3.399e-08  
  1.1380e-09    2.465e-08    3.381e-08  
  1.1385e-09    2.452e-08    3.363e-08  
  1.1390e-09    2.439e-08    3.345e-08  
  1.1395e-09    2.426e-08    3.328e-08  
  1.1400e-09    2.413e-08    3.310e-08  
  1.1405e-09    2.400e-08    3.293e-08  
  1.1410e-09    2.388e-08    3.276e-08  
  1.1415e-09    2.375e-08    3.259e-08  
  1.1420e-09    2.363e-08    3.241e-08  
  1.1425e-09    2.350e-08    3.224e-08  
  1.1430e-09    2.338e-08    3.207e-08  
  1.1435e-09    2.326e-08    3.191e-08  
  1.1440e-09    2.313e-08    3.174e-08  
  1.1445e-09    2.301e-08    3.157e-08  
  1.1450e-09    2.289e-08    3.141e-08  
  1.1455e-09    2.277e-08    3.124e-08  
  1.1460e-09    2.265e-08    3.108e-08  
  1.1465e-09    2.253e-08    3.091e-08  
  1.1470e-09    2.241e-08    3.075e-08  
  1.1475e-09    2.229e-08    3.059e-08  
  1.1480e-09    2.218e-08    3.043e-08  
  1.1485e-09    2.206e-08    3.027e-08  
  1.1490e-09    2.194e-08    3.011e-08  
  1.1495e-09    2.183e-08    2.995e-08  
  1.1500e-09    2.171e-08    2.979e-08  
  1.1505e-09    2.160e-08    2.964e-08  
  1.1510e-09    2.149e-08    2.948e-08  
  1.1515e-09    2.137e-08    2.933e-08  
  1.1520e-09    2.126e-08    2.917e-08  
  1.1525e-09    2.115e-08    2.902e-08  
  1.1530e-09    2.104e-08    2.887e-08  
  1.1535e-09    2.093e-08    2.872e-08  
  1.1540e-09    2.082e-08    2.857e-08  
  1.1545e-09    2.071e-08    2.841e-08  
  1.1550e-09    2.060e-08    2.827e-08  
  1.1555e-09    2.049e-08    2.812e-08  
  1.1560e-09    2.038e-08    2.797e-08  
  1.1565e-09    2.027e-08    2.782e-08  
  1.1570e-09    2.017e-08    2.768e-08  
  1.1575e-09    2.006e-08    2.753e-08  
  1.1580e-09    1.996e-08    2.739e-08  
  1.1585e-09    1.985e-08    2.724e-08  
  1.1590e-09    1.975e-08    2.710e-08  
  1.1595e-09    1.964e-08    2.696e-08  
  1.1600e-09    1.954e-08    2.681e-08  
  1.1605e-09    1.944e-08    2.667e-08  
  1.1610e-09    1.933e-08    2.653e-08  
  1.1615e-09    1.923e-08    2.639e-08  
  1.1620e-09    1.913e-08    2.625e-08  
  1.1625e-09    1.903e-08    2.612e-08  
  1.1630e-09    1.893e-08    2.598e-08  
  1.1635e-09    1.883e-08    2.584e-08  
  1.1640e-09    1.873e-08    2.571e-08  
  1.1645e-09    1.863e-08    2.557e-08  
  1.1650e-09    1.853e-08    2.544e-08  
  1.1655e-09    1.844e-08    2.530e-08  
  1.1660e-09    1.834e-08    2.517e-08  
  1.1665e-09    1.824e-08    2.504e-08  
  1.1670e-09    1.815e-08    2.491e-08  
  1.1675e-09    1.805e-08    2.478e-08  
  1.1680e-09    1.795e-08    2.465e-08  
  1.1685e-09    1.786e-08    2.452e-08  
  1.1690e-09    1.777e-08    2.439e-08  
  1.1695e-09    1.767e-08    2.426e-08  
  1.1700e-09    1.758e-08    2.413e-08  
  1.1705e-09    1.749e-08    2.400e-08  
  1.1710e-09    1.739e-08    2.388e-08  
  1.1715e-09    1.730e-08    2.375e-08  
  1.1720e-09    1.721e-08    2.363e-08  
  1.1725e-09    1.712e-08    2.350e-08  
  1.1730e-09    1.703e-08    2.338e-08  
  1.1735e-09    1.694e-08    2.326e-08  
  1.1740e-09    1.685e-08    2.313e-08  
  1.1745e-09    1.676e-08    2.301e-08  
  1.1750e-09    1.667e-08    2.289e-08  
  1.1755e-09    1.659e-08    2.277e-08  
  1.1760e-09    1.650e-08    2.265e-08  
  1.1765e-09    1.641e-08    2.253e-08  
  1.1770e-09    1.633e-08    2.241e-08  
  1.1775e-09    1.624e-08    2.229e-08  
  1.1780e-09    1.615e-08    2.218e-08  
  1.1785e-09    1.607e-08    2.206e-08  
  1.1790e-09    1.598e-08    2.194e-08  
  1.1795e-09    1.590e-08    2.183e-08  
  1.1800e-09    1.582e-08    2.171e-08  
  1.1805e-09    1.573e-08    2.160e-08  
  1.1810e-09    1.565e-08    2.149e-08  
  1.1815e-09    1.557e-08    2.137e-08  
  1.1820e-09    1.549e-08    2.126e-08  
  1.1825e-09    1.540e-08    2.115e-08  
  1.1830e-09    1.532e-08    2.104e-08  
  1.1835e-09    1.524e-08    2.093e-08  
  1.1840e-09    1.516e-08    2.082e-08  
  1.1845e-09    1.508e-08    2.071e-08  
  1.1850e-09    1.500e-08    2.060e-08  
  1.1855e-09    1.492e-08    2.049e-08  
  1.1860e-09    1.484e-08    2.038e-08  
  1.1865e-09    1.477e-08    2.027e-08  
  1.1870e-09    1.469e-08    2.017e-08  
  1.1875e-09    1.461e-08    2.006e-08  
  1.1880e-09    1.453e-08    1.996e-08  
  1.1885e-09    1.446e-08    1.985e-08  
  1.1890e-09    1.438e-08    1.975e-08  
  1.1895e-09    1.430e-08    1.964e-08  
  1.1900e-09    1.423e-08    1.954e-08  
  1.1905e-09    1.415e-08    1.944e-08  
  1.1910e-09    1.408e-08    1.933e-08  
  1.1915e-09    1.400e-08    1.923e-08  
  1.1920e-09    1.393e-08    1.913e-08  
  1.1925e-09    1.386e-08    1.903e-08  
  1.1930e-09    1.378e-08    1.893e-08  
  1.1935e-09    1.371e-08    1.883e-08  
  1.1940e-09    1.364e-08    1.873e-08  
  1.1945e-09    1.357e-08    1.863e-08  
  1.1950e-09    1.350e-08    1.853e-08  
  1.1955e-09    1.342e-08    1.844e-08  
  1.1960e-09    1.335e-08    1.834e-08  
  1.1965e-09    1.328e-08    1.824e-08  
  1.1970e-09    1.321e-08    1.815e-08  
  1.1975e-09    1.314e-08    1.805e-08  
  1.1980e-09    1.307e-08    1.795e-08  
  1.1985e-09    1.300e-08    1.786e-08  
  1.1990e-09    1.294e-08    1.777e-08  
  1.1995e-09    1.287e-08    1.767e-08  
  1.2000e-09    1.280e-08    1.758e-08  
y

          ***** job concluded
1****** HSPICE -- F-2011.09 32-BIT (Sep  5 2011) linux ******                   
 ******  
 case 25:

  ******  job statistics summary tnom=  25.000 temp=  25.000 *****
  
  
 ******  Machine Information  ******
 CPU:
 model name	: Intel(R) Xeon(R) CPU           E5520  @ 2.27GHz
 cpu MHz	: 2260.871
  
 OS:
 Linux version 3.16.0-4-amd64 (debian-kernel@lists.debian.org) (gcc version 4.8.
 4 (Debian 4.8.4-1) ) #1 SMP Debian 3.16.7-ckt9-3~deb8u1 (2015-04-24)


  ******  HSPICE Threads Information  ******

  Command Line Threads Count :     1
  Available CPU Count        :    16
  Actual Threads Count       :     1


  ******  Circuit Statistics  ******
  # nodes       =      16 # elements   =      28
  # resistors   =       0 # capacitors =       0 # inductors   =       0
  # mutual_inds =       0 # vccs       =       0 # vcvs        =       0
  # cccs        =       0 # ccvs       =       0 # volt_srcs   =       4
  # curr_srcs   =       2 # diodes     =       0 # bjts        =       0
  # jfets       =       0 # mosfets    =      22 # U elements  =       0
  # T elements  =       0 # W elements =       0 # B elements  =       0
  # S elements  =       0 # P elements =       0 # va device   =       0
  # vector_srcs =       0


  ******  Runtime Statistics (seconds)  ******

  analysis           time    # points   tot. iter  conv.iter
  op point           0.01           1           9
  transient          0.29        2400        9605        4802 rev=         1
  readin             0.03
  errchk             0.02
  setup              0.01
  output             0.01


           peak memory used         86.18 megabytes
           total cpu time            0.36 seconds
           total elapsed time        0.36 seconds
           job started at     20:54:25 12/18/2015
           job ended   at     20:54:33 12/18/2015


 lic: Release hspice token(s) 
