Using: /usr/bin/time -p /synopsys/HSPICE/hspice/linux/hspice currentcalc.sp
 ****** HSPICE -- F-2011.09 32-BIT (Sep  5 2011) linux ******                   
  Copyright (C) 2011 Synopsys, Inc. All Rights Reserved.                        
  Unpublished-rights reserved under US copyright laws.
  This program is protected by law and is subject to the
  terms and conditions of the license agreement from Synopsys.
  Use of this program is your acceptance to be bound by the
  license agreement. HSPICE is the trademark of Synopsys, Inc.
  Input File: currentcalc.sp                                                    
  Command line options: currentcalc.sp
 lic: No 'setenv LM_LICENSE_FILE' in current environment' 
 lic:  
 lic: FLEXlm: v10.8 
 lic: USER:   watkins              HOSTNAME: engr-e132-d10 
 lic: HOSTID: 002564bd04da         PID:      30074 
 lic: Using FLEXlm license file: 
 lic: 28000@131.230.191.194 
 lic: Checkout 1 hspice 
 lic: License/Maintenance for hspice will expire on 30-dec-2013/2012.06 
 lic: 1(in_use)/50(total) FLOATING license(s) on SERVER 131.230.191.194 
 lic:   
 Init: read install configuration file: /synopsys/HSPICE/hspice/meta.cfg
1****** HSPICE -- F-2011.09 32-BIT (Sep  5 2011) linux ******                   
 ******  
 $parallel and series stack current characterization

  ******  mos   model parameters tnom=  25.000 temp=  25.000 *****
 Model Name: cmosp  
 BSIM4 Model (Level 54)
    MOBMOD = 2
    BINUNIT = 1
    PARAMCHK = 1
    CAPMOD = 2
    DIOMOD = 1
    RDSMOD = 0
    TRNQSMOD = 0
    ACNQSMOD = 0
    RBODYMOD = 0
    RGATEMOD = 0
    PERMOD = 1
    GEOMOD = 0
    RGEOMOD = 0
    FNOIMOD = 1
    TNOIMOD = 0
    IGCMOD = 0
    IGBMOD = 0
    STIMOD = 1
    VBFWDMOD = 0
    VERSION =    4.3 
    TOXREF =  3e-09 
    TOXE = 2.4e-09 
    TOXP = 2.4e-09 
    TOXM = 2.4e-09 
    DTOX =      0 
    EPSROX =    3.9 
    CDSC = 0.00024 
    CDSCB =      0 
    CDSCD =      0 
    CIT =      0 
    NFACTOR = 0.003481 
    XJ = 1.5e-07 
    VSAT = 8.4e+04 
    A0 =      2 
    AGS =  2.087 
    A1 =      0 
    A2 =      1 
    AT = 3.3e+04 
    KETA =   0.05 
    NSUB =  6e+16 
    NDEP = 1.7e+17 
    NSD =  1e+20 
    NGATE =  1e+20 
    GAMMA1 =      0 
    GAMMA2 =      0 
    VBX =      0 
    VBM =     -3 
    XT = 1.55e-07 
    K1 = 0.5378 
    KT1 =  -0.11 
    KT1L =      0 
    KT2 =  0.022 
    K2 = -0.1001 
    K3 =  87.19 
    K3B =     10 
    LPE0 = 3.625e-08 
    LPEB = -1.473e-08 
    DVTP0 =      0 
    DVTP1 =      0 
    W0 = 1.983e-06 
    DVT0 = 0.009269 
    DVT1 = 0.05083 
    DVT2 = -5.289e-05 
    DVT0W =      0 
    DVT1W =      0 
    DVT2W = -0.032 
    DROUT = 0.9794 
    DSUB =      1 
    VTH0 = -0.1829 
    EU =  1.638 
    UA = 2.065e-15 
    UA1 =  1e-09 
    UB =  1e-23 
    UB1 = -1e-18 
    UC = -1.838e-17 
    UC1 = -5.6e-11 
    U0 =    100 
    UTE =   -1.5 
    VOFF = -0.04221 
    VOFFL =      0 
    MINV =      0 
    FPROUT = 1.439e-05 
    PDITS =      0 
    PDITSD =      0 
    PDITSL =      0 
    DELTA = 0.01356 
    RDSW =  872.6 
    RDSWMIN =    100 
    RDWMIN =      0 
    RSWMIN =      0 
    RDW =    100 
    RSW =    100 
    PRWG = 0.1222 
    PRWB =    0.1 
    PRT =      0 
    ETA0 =  1e-05 
    ETAB =      0 
    PCLM =  0.534 
    PDIBLC1 = 0.5062 
    PDIBLC2 = 0.00473 
    PDIBLCB =      0 
    PSCBE1 = 1.696e+08 
    PSCBE2 =  3e-06 
    PVAG = 0.4223 
    WR =      1 
    DWG = -7.761e-08 
    DWB = 2.989e-08 
    XW =      0 
    XWREF =      0 
    XL =      0 
    XLREF =      0 
    B0 = 1.734e-07 
    B1 =  1e-07 
    ALPHA0 =      0 
    ALPHA1 =      0 
    AGIDL =      0 
    BGIDL = 2.3e+09 
    CGIDL =    0.5 
    PHIN =      0 
    EGIDL =    0.8 
    AIGC =   0.31 
    BIGC =  0.024 
    CIGC =   0.03 
    AIGSD =   0.31 
    BIGSD =  0.024 
    CIGSD =   0.03 
    AIGBACC =   0.43 
    BIGBACC =  0.054 
    CIGBACC =  0.075 
    AIGBINV =   0.35 
    BIGBINV =   0.03 
    CIGBINV =  0.006 
    NIGC =      1 
    NIGBINV =      3 
    NIGBACC =      1 
    NTOX =      1 
    EIGBINV =    1.1 
    PIGCD =      1 
    POXEDGE =      1 
    XRCRG1 =     12 
    TNOIA =    1.5 
    TNOIB =    3.5 
    NTNOI =      1 
    XRCRG2 =      1 
    BETA0 =     30 
    IJTHDFWD =    0.1 
    IJTHSFWD =    0.1 
    IJTHDREV =    0.1 
    IJTHSREV =    0.1 
    XJBVD =      1 
    XJBVS =      1 
    BVD =     10 
    BVS =     10 
    VFB =     -1 
    GBMIN =  1e-12 
    RBDB =     50 
    RBPB =     50 
    RBSB =     50 
    RBPS =     50 
    RBPD =     50 
    CGSL =      0 
    CGDL =      0 
    CKAPPAS =    0.6 
    CKAPPAD =    0.6 
    CF =      0 
    CLC =  1e-07 
    CLE =    0.6 
    DWC = 1.54e-08 
    DLC = 1.382e-10 
    DLCIG = 1.382e-10 
    DWJ = 1.54e-08 
    VFBCV =     -1 
    ACDE =      1 
    MOIN =     15 
    NOFF =      1 
    VOFFCV =      0 
    DMCG =      0 
    DMCI =      0 
    DMDG =      0 
    DMCGT =      0 
    XGW =      0 
    XGL =      0 
    RSHG =    0.1 
    NGCON =      1 
    TCJ =      0 
    TPB =      0 
    TCJSW =      0 
    TPBSW =      0 
    TCJSWG =      0 
    TPBSWG =      0 
    SK0 =      0 
    SK1 =      0 
    SK2 =      0 
    SL =  2e-06 
    SW =  2e-06 
    K =      0 
    WKETA = -0.03641 
    PVSAT =   -100 
    TNOM =  300.1 
    CGSO =  1e-10 
    CGDO =  1e-10 
    CGBO =      0 
    XPART =    0.5 
    RSH =    7.6 
    JSS = 0.0001 
    JSWS =      0 
    JSWGS =      0 
    PBS =      1 
    MJS =  0.475 
    PBSWS =  0.965 
    MJSWS =  0.432 
    CJS = 6.434e-09 
    CJSWS = 1.084e-09 
    NJS =      1 
    PBSWGS = 0.9009 
    MJSWGS = 0.2169 
    CJSWGS = 6.3e-11 
    XTIS =      3 
    JSD = 0.0001 
    JSWD =      0 
    JSWGD =      0 
    PBD =      1 
    MJD =  0.475 
    PBSWD =  0.965 
    MJSWD =  0.432 
    CJD = 6.434e-09 
    CJSWD = 1.084e-09 
    NJD =      1 
    PBSWGD = 0.9009 
    MJSWGD = 0.2169 
    CJSWGD = 6.3e-11 
    XTID =      3 
    LMLT =      1 
    WMLT =      1 
    LINT = 1.382e-10 
    LL =      0 
    LLC =      0 
    LLN =      1 
    LW =      0 
    LWC =      0 
    LWN =      1 
    LWL =      0 
    LWLC =      0 
    LMIN =      0 
    LMAX =      1 
    WINT = 1.54e-08 
    WL =      0 
    WLC =      0 
    WLN =      1 
    WW =      0 
    WWC =      0 
    WWN =      1 
    WWL =      0 
    WWLC =      0 
    WMIN =      0 
    WMAX =      1 
    NOIA = 6.188e+40 
    NOIB = 1.5e+25 
    NOIC = 8.75e+09 
    EM = 4.1e+07 
    EF =      1 
    AF =      1 
    KF =      0 
    TRS =      0 
    TRD =      0 
    TEMPMOD  =      0 
    LAMBDA   =      0 
    VTL      =  2e+05 m/s
    LC       =  5e-09 
    XN       =      3 
    LLAMBDA  =      0 
    LVTL     =      0 
    LXN      =      0 
    WLAMBDA  =      0 
    WVTL     =      0 
    WXN      =      0 
    PLAMBDA  =      0 
    PVTL     =      0 
    PXN      =      0 
    RNOIA    =  0.577 
    RNOIB    =   0.37 
    SAREF(SA0) =  1e-06 m
    SBREF(SB0) =  1e-06 m
    WLOD     =      0 m
    KU0      =      0 1/m
    KVSAT    =      0 
    KVTH0    =      0 m
    TKU0     =      0 
    LLODKU0  =      0 
    WLODKU0  =      0 
    LLODVTH  =      0 
    WLODVTH  =      0 
    LKU0     =      0 
    WKU0     =      0 
    PKU0     =      0 
    LKVTH0   =      0 
    WKVTH0   =      0 
    PKVTH0   =      0 
    STK2     =      0 
    LODK2    =      1 
    STETA0   =      0 
    LODETA0  =      1 
    LXRCRG1  =      0 
    WXRCRG1  =      0 
    PXRCRG1  =      0 
    LXRCRG2  =      0 
    WXRCRG2  =      0 
    PXRCRG2  =      0 
  

 **warning** the following singular supplies were terminated to 1 meg resistor 
   supply       node1            node2
  vina                    0:ag               defined in subckt 0                     0:0                defined in subckt 0               
  vinb                    0:bg               defined in subckt 0                     0:0                defined in subckt 0               
      
 *****************************************************************
 ******  option summary
 ******
 runlvl  = 3         bypass  = 2         
 ******  
 $parallel and series stack current characterization

  ******  dc transfer curves tnom=  25.000 temp=  25.000 *****
x

        volt    current    
                    mpo    
    0.          -65.0115u  
    5.00000m    -64.4890u  
   10.00000m    -63.9665u  
   15.00000m    -63.4439u  
   20.00000m    -62.9213u  
   25.00000m    -62.3985u  
   30.00000m    -61.8755u  
   35.00000m    -61.3523u  
   40.00000m    -60.8289u  
   45.00000m    -60.3051u  
   50.00000m    -59.7811u  
   55.00000m    -59.2567u  
   60.00000m    -58.7318u  
   65.00000m    -58.2065u  
   70.00000m    -57.6807u  
   75.00000m    -57.1543u  
   80.00000m    -56.6273u  
   85.00000m    -56.0997u  
   90.00000m    -55.5713u  
   95.00000m    -55.0421u  
  100.00000m    -54.5121u  
  105.00000m    -53.9813u  
  110.00000m    -53.4494u  
  115.00000m    -52.9166u  
  120.00000m    -52.3826u  
  125.00000m    -51.8476u  
  130.00000m    -51.3113u  
  135.00000m    -50.7738u  
  140.00000m    -50.2349u  
  145.00000m    -49.6946u  
  150.00000m    -49.1528u  
  155.00000m    -48.6095u  
  160.00000m    -48.0646u  
  165.00000m    -47.5181u  
  170.00000m    -46.9697u  
  175.00000m    -46.4196u  
  180.00000m    -45.8676u  
  185.00000m    -45.3136u  
  190.00000m    -44.7576u  
  195.00000m    -44.1996u  
  200.00000m    -43.6394u  
  205.00000m    -43.0771u  
  210.00000m    -42.5125u  
  215.00000m    -41.9457u  
  220.00000m    -41.3765u  
  225.00000m    -40.8050u  
  230.00000m    -40.2311u  
  235.00000m    -39.6547u  
  240.00000m    -39.0760u  
  245.00000m    -38.4948u  
  250.00000m    -37.9111u  
  255.00000m    -37.3250u  
  260.00000m    -36.7365u  
  265.00000m    -36.1456u  
  270.00000m    -35.5523u  
  275.00000m    -34.9568u  
  280.00000m    -34.3590u  
  285.00000m    -33.7590u  
  290.00000m    -33.1570u  
  295.00000m    -32.5531u  
  300.00000m    -31.9473u  
  305.00000m    -31.3399u  
  310.00000m    -30.7309u  
  315.00000m    -30.1206u  
  320.00000m    -29.5091u  
  325.00000m    -28.8967u  
  330.00000m    -28.2837u  
  335.00000m    -27.6701u  
  340.00000m    -27.0564u  
  345.00000m    -26.4428u  
  350.00000m    -25.8296u  
  355.00000m    -25.2171u  
  360.00000m    -24.6057u  
  365.00000m    -23.9956u  
  370.00000m    -23.3874u  
  375.00000m    -22.7812u  
  380.00000m    -22.1776u  
  385.00000m    -21.5769u  
  390.00000m    -20.9795u  
  395.00000m    -20.3858u  
  400.00000m    -19.7962u  
  405.00000m    -19.2111u  
  410.00000m    -18.6309u  
  415.00000m    -18.0561u  
  420.00000m    -17.4869u  
  425.00000m    -16.9238u  
  430.00000m    -16.3671u  
  435.00000m    -15.8172u  
  440.00000m    -15.2745u  
  445.00000m    -14.7393u  
  450.00000m    -14.2118u  
  455.00000m    -13.6924u  
  460.00000m    -13.1813u  
  465.00000m    -12.6789u  
  470.00000m    -12.1853u  
  475.00000m    -11.7007u  
  480.00000m    -11.2255u  
  485.00000m    -10.7597u  
  490.00000m    -10.3036u  
  495.00000m     -9.8573u  
  500.00000m     -9.4210u  
  505.00000m     -8.9948u  
  510.00000m     -8.5789u  
  515.00000m     -8.1733u  
  520.00000m     -7.7783u  
  525.00000m     -7.3939u  
  530.00000m     -7.0203u  
  535.00000m     -6.6575u  
  540.00000m     -6.3056u  
  545.00000m     -5.9648u  
  550.00000m     -5.6351u  
  555.00000m     -5.3166u  
  560.00000m     -5.0094u  
  565.00000m     -4.7135u  
  570.00000m     -4.4290u  
  575.00000m     -4.1558u  
  580.00000m     -3.8939u  
  585.00000m     -3.6434u  
  590.00000m     -3.4041u  
  595.00000m     -3.1760u  
  600.00000m     -2.9589u  
  605.00000m     -2.7527u  
  610.00000m     -2.5572u  
  615.00000m     -2.3722u  
  620.00000m     -2.1976u  
  625.00000m     -2.0329u  
  630.00000m     -1.8781u  
  635.00000m     -1.7327u  
  640.00000m     -1.5964u  
  645.00000m     -1.4689u  
  650.00000m     -1.3499u  
  655.00000m     -1.2390u  
  660.00000m     -1.1358u  
  665.00000m     -1.0400u  
  670.00000m   -951.1378n  
  675.00000m   -868.8945n  
  680.00000m   -792.8920n  
  685.00000m   -722.7666n  
  690.00000m   -658.1623n  
  695.00000m   -598.7322n  
  700.00000m   -544.1399n  
  705.00000m   -494.0610n  
  710.00000m   -448.1836n  
  715.00000m   -406.2095n  
  720.00000m   -367.8543n  
  725.00000m   -332.8483n  
  730.00000m   -300.9358n  
  735.00000m   -271.8760n  
  740.00000m   -245.4422n  
  745.00000m   -221.4220n  
  750.00000m   -199.6166n  
  755.00000m   -179.8408n  
  760.00000m   -161.9221n  
  765.00000m   -145.7004n  
  770.00000m   -131.0275n  
  775.00000m   -117.7662n  
  780.00000m   -105.7901n  
  785.00000m    -94.9828n  
  790.00000m    -85.2371n  
  795.00000m    -76.4549n  
  800.00000m    -68.5461n  
  805.00000m    -61.4284n  
  810.00000m    -55.0265n  
  815.00000m    -49.2718n  
  820.00000m    -44.1018n  
  825.00000m    -39.4595n  
  830.00000m    -35.2931n  
  835.00000m    -31.5558n  
  840.00000m    -28.2050n  
  845.00000m    -25.2019n  
  850.00000m    -22.5117n  
  855.00000m    -20.1028n  
  860.00000m    -17.9466n  
  865.00000m    -16.0173n  
  870.00000m    -14.2918n  
  875.00000m    -12.7489n  
  880.00000m    -11.3699n  
  885.00000m    -10.1376n  
  890.00000m     -9.0370n  
  895.00000m     -8.0541n  
  900.00000m     -7.1766n  
  905.00000m     -6.3935n  
  910.00000m     -5.6947n  
  915.00000m     -5.0714n  
  920.00000m     -4.5155n  
  925.00000m     -4.0198n  
  930.00000m     -3.5780n  
  935.00000m     -3.1842n  
  940.00000m     -2.8333n  
  945.00000m     -2.5208n  
  950.00000m     -2.2423n  
  955.00000m     -1.9944n  
  960.00000m     -1.7736n  
  965.00000m     -1.5771n  
  970.00000m     -1.4022n  
  975.00000m     -1.2465n  
  980.00000m     -1.1080n  
  985.00000m   -984.7972p  
  990.00000m   -875.1828p  
  995.00000m   -777.6917p  
    1.00000    -690.9951p  
y

          ***** job concluded
1****** HSPICE -- F-2011.09 32-BIT (Sep  5 2011) linux ******                   
 ******  
 $parallel and series stack current characterization

  ******  job statistics summary tnom=  25.000 temp=  25.000 *****
  
  
 ******  Machine Information  ******
 CPU:
 model name	: Intel(R) Xeon(R) CPU           E5520  @ 2.27GHz
 cpu MHz	: 2260.532
  
 OS:
 Linux version 3.2.0-4-amd64 (debian-kernel@lists.debian.org) (gcc version 4.6.3
  (Debian 4.6.3-14) ) #1 SMP Debian 3.2.41-2+deb7u2


  ******  HSPICE Threads Information  ******

  Command Line Threads Count :     1
  Available CPU Count        :    16
  Actual Threads Count       :     1


  ******  Circuit Statistics  ******
  # nodes       =       6 # elements   =       8
  # resistors   =       2 # capacitors =       0 # inductors   =       0
  # mutual_inds =       0 # vccs       =       0 # vcvs        =       0
  # cccs        =       0 # ccvs       =       0 # volt_srcs   =       5
  # curr_srcs   =       0 # diodes     =       0 # bjts        =       0
  # jfets       =       0 # mosfets    =       1 # U elements  =       0
  # T elements  =       0 # W elements =       0 # B elements  =       0
  # S elements  =       0 # P elements =       0 # va device   =       0
  # vector_srcs =       0


  ******  Runtime Statistics (seconds)  ******

  analysis           time    # points   tot. iter  conv.iter
  op point           0.00           1           0
  dc sweep           0.00         201         403
  readin             0.02
  errchk             0.00
  setup              0.00
  output             0.00


           peak memory used         83.31 megabytes
           total cpu time            0.02 seconds
           total elapsed time        0.78 seconds
           job started at     10:53:37 07/29/2013
           job ended   at     10:53:38 07/29/2013


 lic: Release hspice token(s) 
