Using: /usr/bin/time -p /synopsys/HSPICE/hspice/linux/hspice capchar.sp
 ****** HSPICE -- F-2011.09 32-BIT (Sep  5 2011) linux ******                   
  Copyright (C) 2011 Synopsys, Inc. All Rights Reserved.                        
  Unpublished-rights reserved under US copyright laws.
  This program is protected by law and is subject to the
  terms and conditions of the license agreement from Synopsys.
  Use of this program is your acceptance to be bound by the
  license agreement. HSPICE is the trademark of Synopsys, Inc.
  Input File: capchar.sp                                                        
  Command line options: capchar.sp
 lic: No 'setenv LM_LICENSE_FILE' in current environment' 
 lic:  
 lic: FLEXlm: v10.8 
 lic: USER:   watkins              HOSTNAME: engr-e132-d10 
 lic: HOSTID: 002564bd04da         PID:      28489 
 lic: Using FLEXlm license file: 
 lic: 28000@131.230.191.194 
 lic: Checkout 1 hspice 
 lic: License/Maintenance for hspice will expire on 30-dec-2013/2012.06 
 lic: 1(in_use)/50(total) FLOATING license(s) on SERVER 131.230.191.194 
 lic:   
 Init: read install configuration file: /synopsys/HSPICE/hspice/meta.cfg
  **warning** option measfile is disabled due to no .alter in the netlist
1****** HSPICE -- F-2011.09 32-BIT (Sep  5 2011) linux ******                   
 ******  
 $ characterize capacitance

  ******  mos   model parameters tnom=  25.000 temp=  25.000 *****
 Model Name: cmosn  
 BSIM4 Model (Level 54)
    MOBMOD = 2
    BINUNIT = 1
    PARAMCHK = 1
    CAPMOD = 2
    DIOMOD = 1
    RDSMOD = 0
    TRNQSMOD = 0
    ACNQSMOD = 0
    RBODYMOD = 0
    RGATEMOD = 0
    PERMOD = 1
    GEOMOD = 0
    RGEOMOD = 0
    FNOIMOD = 1
    TNOIMOD = 0
    IGCMOD = 0
    IGBMOD = 0
    STIMOD = 2
    VBFWDMOD = 0
    VERSION =    4.3 
    TOXREF =  3e-09 
    TOXE = 2.2e-09 
    TOXP = 2.2e-09 
    TOXM = 2.2e-09 
    DTOX =      0 
    EPSROX =    3.9 
    CDSC = 0.00024 
    CDSCB =      0 
    CDSCD =      0 
    CIT =      0 
    NFACTOR =  1.913 
    XJ = 1.5e-07 
    VSAT = 7.526e+05 
    A0 =      2 
    AGS =      0 
    A1 =      0 
    A2 =      1 
    AT = 3.3e+04 
    KETA =   0.05 
    NSUB =  6e+16 
    NDEP = 1.7e+17 
    NSD =  1e+20 
    NGATE =  1e+20 
    GAMMA1 =      0 
    GAMMA2 =      0 
    VBX =      0 
    VBM =     -3 
    XT = 1.55e-07 
    K1 =  0.546 
    KT1 =  -0.11 
    KT1L =      0 
    KT2 =  0.022 
    K2 = -0.1063 
    K3 = 0.001001 
    K3B =  8.256 
    LPE0 = 8.091e-08 
    LPEB = 6.541e-08 
    DVTP0 =      0 
    DVTP1 =      0 
    W0 =  1e-10 
    DVT0 = 0.02411 
    DVT1 = 0.0355 
    DVT2 = -5.083e-05 
    DVT0W =      0 
    DVT1W =      0 
    DVT2W = -0.032 
    DROUT = 0.6772 
    DSUB = 0.1841 
    VTH0 = 0.2637 
    EU = 0.1099 
    UA = 5.008e-15 
    UA1 =  1e-09 
    UB =  1e-26 
    UB1 = -1e-18 
    UC = -1e-10 
    UC1 = -5.6e-11 
    U0 =  180.6 
    UTE =   -1.5 
    VOFF = -0.03494 
    VOFFL =      0 
    MINV =      0 
    FPROUT = 0.000169 
    PDITS =      0 
    PDITSD =      0 
    PDITSL =      0 
    DELTA = 0.001742 
    RDSW =    100 
    RDSWMIN =    100 
    RDWMIN =      0 
    RSWMIN =      0 
    RDW =    100 
    RSW =    100 
    PRWG =      3 
    PRWB = 0.0997 
    PRT =      0 
    ETA0 = 0.002948 
    ETAB = -0.01177 
    PCLM = 0.4021 
    PDIBLC1 = 0.6278 
    PDIBLC2 =   0.01 
    PDIBLCB = -0.001 
    PSCBE1 = 5.553e+08 
    PSCBE2 = 3.093e-06 
    PVAG = 0.04912 
    WR =      1 
    DWG = -2.359e-08 
    DWB = 4.286e-08 
    XW =      0 
    XWREF =      0 
    XL =      0 
    XLREF =      0 
    B0 = 1.249e-06 
    B1 =  1e-07 
    ALPHA0 =      0 
    ALPHA1 =      0 
    AGIDL =      0 
    BGIDL = 2.3e+09 
    CGIDL =    0.5 
    PHIN =      0 
    EGIDL =    0.8 
    AIGC =   0.43 
    BIGC =  0.054 
    CIGC =  0.075 
    AIGSD =   0.43 
    BIGSD =  0.054 
    CIGSD =  0.075 
    AIGBACC =   0.43 
    BIGBACC =  0.054 
    CIGBACC =  0.075 
    AIGBINV =   0.35 
    BIGBINV =   0.03 
    CIGBINV =  0.006 
    NIGC =      1 
    NIGBINV =      3 
    NIGBACC =      1 
    NTOX =      1 
    EIGBINV =    1.1 
    PIGCD =      1 
    POXEDGE =      1 
    XRCRG1 =     12 
    TNOIA =    1.5 
    TNOIB =    3.5 
    NTNOI =      1 
    XRCRG2 =      1 
    BETA0 =     30 
    IJTHDFWD =    0.1 
    IJTHSFWD =    0.1 
    IJTHDREV =    0.1 
    IJTHSREV =    0.1 
    XJBVD =      1 
    XJBVS =      1 
    BVD =     10 
    BVS =     10 
    VFB =     -1 
    GBMIN =  1e-12 
    RBDB =     50 
    RBPB =     50 
    RBSB =     50 
    RBPS =     50 
    RBPD =     50 
    CGSL =      0 
    CGDL =      0 
    CKAPPAS =    0.6 
    CKAPPAD =    0.6 
    CF =      0 
    CLC =  1e-07 
    CLE =    0.6 
    DWC = 4.514e-15 
    DLC = 3.005e-12 
    DLCIG = 3.005e-12 
    DWJ = 4.514e-15 
    VFBCV =     -1 
    ACDE =      1 
    MOIN =     15 
    NOFF =      1 
    VOFFCV =      0 
    DMCG =      0 
    DMCI =      0 
    DMDG =      0 
    DMCGT =      0 
    XGW =      0 
    XGL =      0 
    RSHG =    0.1 
    NGCON =      1 
    TCJ =      0 
    TPB =      0 
    TCJSW =      0 
    TPBSW =      0 
    TCJSWG =      0 
    TPBSWG =      0 
    SK0 =      0 
    SK1 =      0 
    SK2 =      0 
    SL =  2e-06 
    SW =  2e-06 
    K =      0 
    WKETA = 0.03991 
    PVSAT =   1839 
    PKETA = -0.001059 
    TNOM =  300.1 
    CGSO =  1e-10 
    CGDO =  1e-10 
    CGBO =      0 
    XPART =    0.5 
    RSH =    7.2 
    JSS = 0.0001 
    JSWS =      0 
    JSWGS =      0 
    PBS =      1 
    MJS = 0.3003 
    PBSWS =    0.4 
    MJSWS = 0.2357 
    CJS = 0.000893 
    CJSWS = 1.59e-10 
    NJS =      1 
    PBSWGS = 0.4291 
    MJSWGS = 0.1758 
    CJSWGS = 3.065e-11 
    XTIS =      3 
    JSD = 0.0001 
    JSWD =      0 
    JSWGD =      0 
    PBD =      1 
    MJD = 0.3003 
    PBSWD =    0.4 
    MJSWD = 0.2357 
    CJD = 0.000893 
    CJSWD = 1.59e-10 
    NJD =      1 
    PBSWGD = 0.4291 
    MJSWGD = 0.1758 
    CJSWGD = 3.065e-11 
    XTID =      3 
    LMLT =      1 
    WMLT =      1 
    LINT = 3.005e-12 
    LL =      0 
    LLC =      0 
    LLN =      1 
    LW =      0 
    LWC =      0 
    LWN =      1 
    LWL =      0 
    LWLC =      0 
    LMIN =      0 
    LMAX =      1 
    WINT = 4.514e-15 
    WL =      0 
    WLC =      0 
    WLN =      1 
    WW =      0 
    WWC =      0 
    WWN =      1 
    WWL =      0 
    WWLC =      0 
    WMIN =      0 
    WMAX =      1 
    NOIA = 6.25e+41 
    NOIB = 3.125e+26 
    NOIC = 8.75e+09 
    EM = 4.1e+07 
    EF =      1 
    AF =      1 
    KF =      0 
    TRS =      0 
    TRD =      0 
    TEMPMOD  =      0 
    LAMBDA   =      0 
    VTL      =  2e+05 m/s
    LC       =  5e-09 
    XN       =      3 
    LLAMBDA  =      0 
    LVTL     =      0 
    LXN      =      0 
    WLAMBDA  =      0 
    WVTL     =      0 
    WXN      =      0 
    PLAMBDA  =      0 
    PVTL     =      0 
    PXN      =      0 
    RNOIA    =  0.577 
    RNOIB    =   0.37 
    SAREF(SA0) = 5.5e-07 m
    SBREF(SB0) = 5.5e-07 m
    WLOD     =  2e-06 m
    KU0      = -4e-07 1/m
    KVSAT    =   0.01 
    KVTH0    =  1e-09 m
    TKU0     =      0 
    LLODKU0  =  1.087 
    WLODKU0  =  1.099 
    LLODVTH  =      1 
    WLODVTH  =      1 
    LKU0     =  1e-06 
    WKU0     =  1e-06 
    PKU0     =      0 
    LKVTH0   = 1.1e-07 
    WKVTH0   = 1.1e-07 
    PKVTH0   =      0 
    STK2     =      0 
    LODK2    =      1 
    STETA0   =      0 
    LODETA0  =      1 
    LXRCRG1  =      0 
    WXRCRG1  =      0 
    PXRCRG1  =      0 
    LXRCRG2  =      0 
    WXRCRG2  =      0 
    PXRCRG2  =      0 
 Model Name: cmosp  
 BSIM4 Model (Level 54)
    MOBMOD = 2
    BINUNIT = 1
    PARAMCHK = 1
    CAPMOD = 2
    DIOMOD = 1
    RDSMOD = 0
    TRNQSMOD = 0
    ACNQSMOD = 0
    RBODYMOD = 0
    RGATEMOD = 0
    PERMOD = 1
    GEOMOD = 0
    RGEOMOD = 0
    FNOIMOD = 1
    TNOIMOD = 0
    IGCMOD = 0
    IGBMOD = 0
    STIMOD = 1
    VBFWDMOD = 0
    VERSION =    4.3 
    TOXREF =  3e-09 
    TOXE = 2.4e-09 
    TOXP = 2.4e-09 
    TOXM = 2.4e-09 
    DTOX =      0 
    EPSROX =    3.9 
    CDSC = 0.00024 
    CDSCB =      0 
    CDSCD =      0 
    CIT =      0 
    NFACTOR = 0.003481 
    XJ = 1.5e-07 
    VSAT = 8.4e+04 
    A0 =      2 
    AGS =  2.087 
    A1 =      0 
    A2 =      1 
    AT = 3.3e+04 
    KETA =   0.05 
    NSUB =  6e+16 
    NDEP = 1.7e+17 
    NSD =  1e+20 
    NGATE =  1e+20 
    GAMMA1 =      0 
    GAMMA2 =      0 
    VBX =      0 
    VBM =     -3 
    XT = 1.55e-07 
    K1 = 0.5378 
    KT1 =  -0.11 
    KT1L =      0 
    KT2 =  0.022 
    K2 = -0.1001 
    K3 =  87.19 
    K3B =     10 
    LPE0 = 3.625e-08 
    LPEB = -1.473e-08 
    DVTP0 =      0 
    DVTP1 =      0 
    W0 = 1.983e-06 
    DVT0 = 0.009269 
    DVT1 = 0.05083 
    DVT2 = -5.289e-05 
    DVT0W =      0 
    DVT1W =      0 
    DVT2W = -0.032 
    DROUT = 0.9794 
    DSUB =      1 
    VTH0 = -0.1829 
    EU =  1.638 
    UA = 2.065e-15 
    UA1 =  1e-09 
    UB =  1e-23 
    UB1 = -1e-18 
    UC = -1.838e-17 
    UC1 = -5.6e-11 
    U0 =    100 
    UTE =   -1.5 
    VOFF = -0.04221 
    VOFFL =      0 
    MINV =      0 
    FPROUT = 1.439e-05 
    PDITS =      0 
    PDITSD =      0 
    PDITSL =      0 
    DELTA = 0.01356 
    RDSW =  872.6 
    RDSWMIN =    100 
    RDWMIN =      0 
    RSWMIN =      0 
    RDW =    100 
    RSW =    100 
    PRWG = 0.1222 
    PRWB =    0.1 
    PRT =      0 
    ETA0 =  1e-05 
    ETAB =      0 
    PCLM =  0.534 
    PDIBLC1 = 0.5062 
    PDIBLC2 = 0.00473 
    PDIBLCB =      0 
    PSCBE1 = 1.696e+08 
    PSCBE2 =  3e-06 
    PVAG = 0.4223 
    WR =      1 
    DWG = -7.761e-08 
    DWB = 2.989e-08 
    XW =      0 
    XWREF =      0 
    XL =      0 
    XLREF =      0 
    B0 = 1.734e-07 
    B1 =  1e-07 
    ALPHA0 =      0 
    ALPHA1 =      0 
    AGIDL =      0 
    BGIDL = 2.3e+09 
    CGIDL =    0.5 
    PHIN =      0 
    EGIDL =    0.8 
    AIGC =   0.31 
    BIGC =  0.024 
    CIGC =   0.03 
    AIGSD =   0.31 
    BIGSD =  0.024 
    CIGSD =   0.03 
    AIGBACC =   0.43 
    BIGBACC =  0.054 
    CIGBACC =  0.075 
    AIGBINV =   0.35 
    BIGBINV =   0.03 
    CIGBINV =  0.006 
    NIGC =      1 
    NIGBINV =      3 
    NIGBACC =      1 
    NTOX =      1 
    EIGBINV =    1.1 
    PIGCD =      1 
    POXEDGE =      1 
    XRCRG1 =     12 
    TNOIA =    1.5 
    TNOIB =    3.5 
    NTNOI =      1 
    XRCRG2 =      1 
    BETA0 =     30 
    IJTHDFWD =    0.1 
    IJTHSFWD =    0.1 
    IJTHDREV =    0.1 
    IJTHSREV =    0.1 
    XJBVD =      1 
    XJBVS =      1 
    BVD =     10 
    BVS =     10 
    VFB =     -1 
    GBMIN =  1e-12 
    RBDB =     50 
    RBPB =     50 
    RBSB =     50 
    RBPS =     50 
    RBPD =     50 
    CGSL =      0 
    CGDL =      0 
    CKAPPAS =    0.6 
    CKAPPAD =    0.6 
    CF =      0 
    CLC =  1e-07 
    CLE =    0.6 
    DWC = 1.54e-08 
    DLC = 1.382e-10 
    DLCIG = 1.382e-10 
    DWJ = 1.54e-08 
    VFBCV =     -1 
    ACDE =      1 
    MOIN =     15 
    NOFF =      1 
    VOFFCV =      0 
    DMCG =      0 
    DMCI =      0 
    DMDG =      0 
    DMCGT =      0 
    XGW =      0 
    XGL =      0 
    RSHG =    0.1 
    NGCON =      1 
    TCJ =      0 
    TPB =      0 
    TCJSW =      0 
    TPBSW =      0 
    TCJSWG =      0 
    TPBSWG =      0 
    SK0 =      0 
    SK1 =      0 
    SK2 =      0 
    SL =  2e-06 
    SW =  2e-06 
    K =      0 
    WKETA = -0.03641 
    PVSAT =   -100 
    TNOM =  300.1 
    CGSO =  1e-10 
    CGDO =  1e-10 
    CGBO =      0 
    XPART =    0.5 
    RSH =    7.6 
    JSS = 0.0001 
    JSWS =      0 
    JSWGS =      0 
    PBS =      1 
    MJS =  0.475 
    PBSWS =  0.965 
    MJSWS =  0.432 
    CJS = 6.434e-09 
    CJSWS = 1.084e-09 
    NJS =      1 
    PBSWGS = 0.9009 
    MJSWGS = 0.2169 
    CJSWGS = 6.3e-11 
    XTIS =      3 
    JSD = 0.0001 
    JSWD =      0 
    JSWGD =      0 
    PBD =      1 
    MJD =  0.475 
    PBSWD =  0.965 
    MJSWD =  0.432 
    CJD = 6.434e-09 
    CJSWD = 1.084e-09 
    NJD =      1 
    PBSWGD = 0.9009 
    MJSWGD = 0.2169 
    CJSWGD = 6.3e-11 
    XTID =      3 
    LMLT =      1 
    WMLT =      1 
    LINT = 1.382e-10 
    LL =      0 
    LLC =      0 
    LLN =      1 
    LW =      0 
    LWC =      0 
    LWN =      1 
    LWL =      0 
    LWLC =      0 
    LMIN =      0 
    LMAX =      1 
    WINT = 1.54e-08 
    WL =      0 
    WLC =      0 
    WLN =      1 
    WW =      0 
    WWC =      0 
    WWN =      1 
    WWL =      0 
    WWLC =      0 
    WMIN =      0 
    WMAX =      1 
    NOIA = 6.188e+40 
    NOIB = 1.5e+25 
    NOIC = 8.75e+09 
    EM = 4.1e+07 
    EF =      1 
    AF =      1 
    KF =      0 
    TRS =      0 
    TRD =      0 
    TEMPMOD  =      0 
    LAMBDA   =      0 
    VTL      =  2e+05 m/s
    LC       =  5e-09 
    XN       =      3 
    LLAMBDA  =      0 
    LVTL     =      0 
    LXN      =      0 
    WLAMBDA  =      0 
    WVTL     =      0 
    WXN      =      0 
    PLAMBDA  =      0 
    PVTL     =      0 
    PXN      =      0 
    RNOIA    =  0.577 
    RNOIB    =   0.37 
    SAREF(SA0) =  1e-06 m
    SBREF(SB0) =  1e-06 m
    WLOD     =      0 m
    KU0      =      0 1/m
    KVSAT    =      0 
    KVTH0    =      0 m
    TKU0     =      0 
    LLODKU0  =      0 
    WLODKU0  =      0 
    LLODVTH  =      0 
    WLODVTH  =      0 
    LKU0     =      0 
    WKU0     =      0 
    PKU0     =      0 
    LKVTH0   =      0 
    WKVTH0   =      0 
    PKVTH0   =      0 
    STK2     =      0 
    LODK2    =      1 
    STETA0   =      0 
    LODETA0  =      1 
    LXRCRG1  =      0 
    WXRCRG1  =      0 
    PXRCRG1  =      0 
    LXRCRG2  =      0 
    WXRCRG2  =      0 
    PXRCRG2  =      0 
  **info** (capchar.sp:18) DC voltage reset to initial transient source value              in source        0:ita                 new dc=  0.0000D+00
 **warning** (i_ita:0) pulse rise time is  < or = zero, reset to tstep
 **warning** (i_ita:0) pulse fall time is  < or = zero, reset to tstep
  
      
 **warning** (i_ita:0) pulse rise time is  < or = zero, reset to tstep
 **warning** (i_ita:0) pulse fall time is  < or = zero, reset to tstep
 **info** set option symb=1 internally to help for convergence.
 *****************************************************************
 ******  option summary
 ******
 runlvl  = 3         bypass  = 2         
1****** HSPICE -- F-2011.09 32-BIT (Sep  5 2011) linux ******                   
 ******  
 $ characterize capacitance

  ******  operating point information tnom=  25.000 temp=  25.000 *****
 ***** operating point status is voltage   simulation time is     0.     
    node    =voltage      node    =voltage      node    =voltage

 +0:a       =   0.      0:b       =   1.0000  0:cn1     =  14.4780u
 +0:vdd     =   1.0000  0:z       = 999.9820m

 ******  
 $ characterize capacitance

  ******  transient analysis tnom=  25.000 temp=  25.000 *****
x

        time    current      param      
                    ita         v(z) - v
    0.            0.         999.9820m  
   50.00000f      0.         999.9820m  
  100.00000f      0.         999.9820m  
  150.00000f      0.         999.9820m  
  200.00000f      0.         999.9820m  
  250.00000f      0.         999.9820m  
  300.00000f      0.         999.9820m  
  350.00000f      0.         999.9820m  
  400.00000f      0.         999.9820m  
  450.00000f      0.         999.9820m  
  500.00000f      0.         999.9820m  
  550.00000f      0.         999.9820m  
  600.00000f      0.         999.9820m  
  650.00000f      0.         999.9820m  
  700.00000f      0.         999.9820m  
  750.00000f      0.         999.9820m  
  800.00000f      0.         999.9820m  
  850.00000f      0.         999.9820m  
  900.00000f      0.         999.9820m  
  950.00000f      0.         999.9820m  
    1.00000p      0.         999.9820m  
    1.05000p      0.         999.9820m  
    1.10000p      0.         999.9820m  
    1.15000p      0.         999.9820m  
    1.20000p      0.         999.9820m  
    1.25000p      0.         999.9820m  
    1.30000p      0.         999.9820m  
    1.35000p      0.         999.9820m  
    1.40000p      0.         999.9820m  
    1.45000p      0.         999.9820m  
    1.50000p      0.         999.9820m  
    1.55000p      0.         999.9820m  
    1.60000p      0.         999.9820m  
    1.65000p      0.         999.9820m  
    1.70000p      0.         999.9820m  
    1.75000p      0.         999.9820m  
    1.80000p      0.         999.9820m  
    1.85000p      0.         999.9820m  
    1.90000p      0.         999.9820m  
    1.95000p      0.         999.9820m  
    2.00000p      0.         999.9820m  
    2.05000p      0.         999.9820m  
    2.10000p      0.         999.9820m  
    2.15000p      0.         999.9820m  
    2.20000p      0.         999.9820m  
    2.25000p      0.         999.9820m  
    2.30000p      0.         999.9820m  
    2.35000p      0.         999.9820m  
    2.40000p      0.         999.9820m  
    2.45000p      0.         999.9820m  
    2.50000p      0.         999.9820m  
    2.55000p      0.         999.9820m  
    2.60000p      0.         999.9820m  
    2.65000p      0.         999.9820m  
    2.70000p      0.         999.9820m  
    2.75000p      0.         999.9820m  
    2.80000p      0.         999.9820m  
    2.85000p      0.         999.9820m  
    2.90000p      0.         999.9820m  
    2.95000p      0.         999.9820m  
    3.00000p      0.         999.9820m  
    3.05000p      0.         999.9820m  
    3.10000p      0.         999.9820m  
    3.15000p      0.         999.9820m  
    3.20000p      0.         999.9820m  
    3.25000p      0.         999.9820m  
    3.30000p      0.         999.9820m  
    3.35000p      0.         999.9820m  
    3.40000p      0.         999.9820m  
    3.45000p      0.         999.9820m  
    3.50000p      0.         999.9820m  
    3.55000p      0.         999.9820m  
    3.60000p      0.         999.9820m  
    3.65000p      0.         999.9820m  
    3.70000p      0.         999.9820m  
    3.75000p      0.         999.9820m  
    3.80000p      0.         999.9820m  
    3.85000p      0.         999.9820m  
    3.90000p      0.         999.9820m  
    3.95000p      0.         999.9820m  
    4.00000p      0.         999.9820m  
    4.05000p      0.         999.9820m  
    4.10000p      0.         999.9820m  
    4.15000p      0.         999.9820m  
    4.20000p      0.         999.9820m  
    4.25000p      0.         999.9820m  
    4.30000p      0.         999.9820m  
    4.35000p      0.         999.9820m  
    4.40000p      0.         999.9820m  
    4.45000p      0.         999.9820m  
    4.50000p      0.         999.9820m  
    4.55000p      0.         999.9820m  
    4.60000p      0.         999.9820m  
    4.65000p      0.         999.9820m  
    4.70000p      0.         999.9820m  
    4.75000p      0.         999.9820m  
    4.80000p      0.         999.9820m  
    4.85000p      0.         999.9820m  
    4.90000p      0.         999.9820m  
    4.95000p      0.         999.9820m  
    5.00000p      0.         999.9820m  
    5.05000p      0.         999.9820m  
    5.10000p      0.         999.9820m  
    5.15000p      0.         999.9820m  
    5.20000p      0.         999.9820m  
    5.25000p      0.         999.9820m  
    5.30000p      0.         999.9820m  
    5.35000p      0.         999.9820m  
    5.40000p      0.         999.9820m  
    5.45000p      0.         999.9820m  
    5.50000p      0.         999.9820m  
    5.55000p      0.         999.9820m  
    5.60000p      0.         999.9820m  
    5.65000p      0.         999.9820m  
    5.70000p      0.         999.9820m  
    5.75000p      0.         999.9820m  
    5.80000p      0.         999.9820m  
    5.85000p      0.         999.9820m  
    5.90000p      0.         999.9820m  
    5.95000p      0.         999.9820m  
    6.00000p      0.         999.9820m  
    6.05000p      0.         999.9820m  
    6.10000p      0.         999.9820m  
    6.15000p      0.         999.9820m  
    6.20000p      0.         999.9820m  
    6.25000p      0.         999.9820m  
    6.30000p      0.         999.9820m  
    6.35000p      0.         999.9820m  
    6.40000p      0.         999.9820m  
    6.45000p      0.         999.9820m  
    6.50000p      0.         999.9820m  
    6.55000p      0.         999.9820m  
    6.60000p      0.         999.9820m  
    6.65000p      0.         999.9820m  
    6.70000p      0.         999.9820m  
    6.75000p      0.         999.9820m  
    6.80000p      0.         999.9820m  
    6.85000p      0.         999.9820m  
    6.90000p      0.         999.9820m  
    6.95000p      0.         999.9820m  
    7.00000p      0.         999.9820m  
    7.05000p      0.         999.9820m  
    7.10000p      0.         999.9820m  
    7.15000p      0.         999.9820m  
    7.20000p      0.         999.9820m  
    7.25000p      0.         999.9820m  
    7.30000p      0.         999.9820m  
    7.35000p      0.         999.9820m  
    7.40000p      0.         999.9820m  
    7.45000p      0.         999.9820m  
    7.50000p      0.         999.9820m  
    7.55000p      0.         999.9820m  
    7.60000p      0.         999.9820m  
    7.65000p      0.         999.9820m  
    7.70000p      0.         999.9820m  
    7.75000p      0.         999.9820m  
    7.80000p      0.         999.9820m  
    7.85000p      0.         999.9820m  
    7.90000p      0.         999.9820m  
    7.95000p      0.         999.9820m  
    8.00000p      0.         999.9820m  
    8.05000p      0.         999.9820m  
    8.10000p      0.         999.9820m  
    8.15000p      0.         999.9820m  
    8.20000p      0.         999.9820m  
    8.25000p      0.         999.9820m  
    8.30000p      0.         999.9820m  
    8.35000p      0.         999.9820m  
    8.40000p      0.         999.9820m  
    8.45000p      0.         999.9820m  
    8.50000p      0.         999.9820m  
    8.55000p      0.         999.9820m  
    8.60000p      0.         999.9820m  
    8.65000p      0.         999.9820m  
    8.70000p      0.         999.9820m  
    8.75000p      0.         999.9820m  
    8.80000p      0.         999.9820m  
    8.85000p      0.         999.9820m  
    8.90000p      0.         999.9820m  
    8.95000p      0.         999.9820m  
    9.00000p      0.         999.9820m  
    9.05000p      0.         999.9820m  
    9.10000p      0.         999.9820m  
    9.15000p      0.         999.9820m  
    9.20000p      0.         999.9820m  
    9.25000p      0.         999.9820m  
    9.30000p      0.         999.9820m  
    9.35000p      0.         999.9820m  
    9.40000p      0.         999.9820m  
    9.45000p      0.         999.9820m  
    9.50000p      0.         999.9820m  
    9.55000p      0.         999.9820m  
    9.60000p      0.         999.9820m  
    9.65000p      0.         999.9820m  
    9.70000p      0.         999.9820m  
    9.75000p      0.         999.9820m  
    9.80000p      0.         999.9820m  
    9.85000p      0.         999.9820m  
    9.90000p      0.         999.9820m  
    9.95000p      0.         999.9820m  
   10.00000p      0.         999.9820m  
   10.05000p      0.         999.9820m  
   10.10000p      0.         999.9820m  
   10.15000p      0.         999.9820m  
   10.20000p      0.         999.9820m  
   10.25000p      0.         999.9820m  
   10.30000p      0.         999.9820m  
   10.35000p      0.         999.9820m  
   10.40000p      0.         999.9820m  
   10.45000p      0.         999.9820m  
   10.50000p      0.         999.9820m  
   10.55000p      0.         999.9820m  
   10.60000p      0.         999.9820m  
   10.65000p      0.         999.9820m  
   10.70000p      0.         999.9820m  
   10.75000p      0.         999.9820m  
   10.80000p      0.         999.9820m  
   10.85000p      0.         999.9820m  
   10.90000p      0.         999.9820m  
   10.95000p      0.         999.9820m  
   11.00000p      0.         999.9820m  
   11.05000p      0.         999.9820m  
   11.10000p      0.         999.9820m  
   11.15000p      0.         999.9820m  
   11.20000p      0.         999.9820m  
   11.25000p      0.         999.9820m  
   11.30000p      0.         999.9820m  
   11.35000p      0.         999.9820m  
   11.40000p      0.         999.9820m  
   11.45000p      0.         999.9820m  
   11.50000p      0.         999.9820m  
   11.55000p      0.         999.9820m  
   11.60000p      0.         999.9820m  
   11.65000p      0.         999.9820m  
   11.70000p      0.         999.9820m  
   11.75000p      0.         999.9820m  
   11.80000p      0.         999.9820m  
   11.85000p      0.         999.9820m  
   11.90000p      0.         999.9820m  
   11.95000p      0.         999.9820m  
   12.00000p      0.         999.9820m  
   12.05000p      0.         999.9820m  
   12.10000p      0.         999.9820m  
   12.15000p      0.         999.9820m  
   12.20000p      0.         999.9820m  
   12.25000p      0.         999.9820m  
   12.30000p      0.         999.9820m  
   12.35000p      0.         999.9820m  
   12.40000p      0.         999.9820m  
   12.45000p      0.         999.9820m  
   12.50000p      0.         999.9820m  
   12.55000p      0.         999.9820m  
   12.60000p      0.         999.9820m  
   12.65000p      0.         999.9820m  
   12.70000p      0.         999.9820m  
   12.75000p      0.         999.9820m  
   12.80000p      0.         999.9820m  
   12.85000p      0.         999.9820m  
   12.90000p      0.         999.9820m  
   12.95000p      0.         999.9820m  
   13.00000p      0.         999.9820m  
   13.05000p      0.         999.9820m  
   13.10000p      0.         999.9820m  
   13.15000p      0.         999.9820m  
   13.20000p      0.         999.9820m  
   13.25000p      0.         999.9820m  
   13.30000p      0.         999.9820m  
   13.35000p      0.         999.9820m  
   13.40000p      0.         999.9820m  
   13.45000p      0.         999.9820m  
   13.50000p      0.         999.9820m  
   13.55000p      0.         999.9820m  
   13.60000p      0.         999.9820m  
   13.65000p      0.         999.9820m  
   13.70000p      0.         999.9820m  
   13.75000p      0.         999.9820m  
   13.80000p      0.         999.9820m  
   13.85000p      0.         999.9820m  
   13.90000p      0.         999.9820m  
   13.95000p      0.         999.9820m  
   14.00000p      0.         999.9820m  
   14.05000p      0.         999.9820m  
   14.10000p      0.         999.9820m  
   14.15000p      0.         999.9820m  
   14.20000p      0.         999.9820m  
   14.25000p      0.         999.9820m  
   14.30000p      0.         999.9820m  
   14.35000p      0.         999.9820m  
   14.40000p      0.         999.9820m  
   14.45000p      0.         999.9820m  
   14.50000p      0.         999.9820m  
   14.55000p      0.         999.9820m  
   14.60000p      0.         999.9820m  
   14.65000p      0.         999.9820m  
   14.70000p      0.         999.9820m  
   14.75000p      0.         999.9820m  
   14.80000p      0.         999.9820m  
   14.85000p      0.         999.9820m  
   14.90000p      0.         999.9820m  
   14.95000p      0.         999.9820m  
   15.00000p      0.         999.9820m  
   15.05000p      0.         999.9820m  
   15.10000p      0.         999.9820m  
   15.15000p      0.         999.9820m  
   15.20000p      0.         999.9820m  
   15.25000p      0.         999.9820m  
   15.30000p      0.         999.9820m  
   15.35000p      0.         999.9820m  
   15.40000p      0.         999.9820m  
   15.45000p      0.         999.9820m  
   15.50000p      0.         999.9820m  
   15.55000p      0.         999.9820m  
   15.60000p      0.         999.9820m  
   15.65000p      0.         999.9820m  
   15.70000p      0.         999.9820m  
   15.75000p      0.         999.9820m  
   15.80000p      0.         999.9820m  
   15.85000p      0.         999.9820m  
   15.90000p      0.         999.9820m  
   15.95000p      0.         999.9820m  
   16.00000p      0.         999.9820m  
   16.05000p      0.         999.9820m  
   16.10000p      0.         999.9820m  
   16.15000p      0.         999.9820m  
   16.20000p      0.         999.9820m  
   16.25000p      0.         999.9820m  
   16.30000p      0.         999.9820m  
   16.35000p      0.         999.9820m  
   16.40000p      0.         999.9820m  
   16.45000p      0.         999.9820m  
   16.50000p      0.         999.9820m  
   16.55000p      0.         999.9820m  
   16.60000p      0.         999.9820m  
   16.65000p      0.         999.9820m  
   16.70000p      0.         999.9820m  
   16.75000p      0.         999.9820m  
   16.80000p      0.         999.9820m  
   16.85000p      0.         999.9820m  
   16.90000p      0.         999.9820m  
   16.95000p      0.         999.9820m  
   17.00000p      0.         999.9820m  
   17.05000p      0.         999.9820m  
   17.10000p      0.         999.9820m  
   17.15000p      0.         999.9820m  
   17.20000p      0.         999.9820m  
   17.25000p      0.         999.9820m  
   17.30000p      0.         999.9820m  
   17.35000p      0.         999.9820m  
   17.40000p      0.         999.9820m  
   17.45000p      0.         999.9820m  
   17.50000p      0.         999.9820m  
   17.55000p      0.         999.9820m  
   17.60000p      0.         999.9820m  
   17.65000p      0.         999.9820m  
   17.70000p      0.         999.9820m  
   17.75000p      0.         999.9820m  
   17.80000p      0.         999.9820m  
   17.85000p      0.         999.9820m  
   17.90000p      0.         999.9820m  
   17.95000p      0.         999.9820m  
   18.00000p      0.         999.9820m  
   18.05000p      0.         999.9820m  
   18.10000p      0.         999.9820m  
   18.15000p      0.         999.9820m  
   18.20000p      0.         999.9820m  
   18.25000p      0.         999.9820m  
   18.30000p      0.         999.9820m  
   18.35000p      0.         999.9820m  
   18.40000p      0.         999.9820m  
   18.45000p      0.         999.9820m  
   18.50000p      0.         999.9820m  
   18.55000p      0.         999.9820m  
   18.60000p      0.         999.9820m  
   18.65000p      0.         999.9820m  
   18.70000p      0.         999.9820m  
   18.75000p      0.         999.9820m  
   18.80000p      0.         999.9820m  
   18.85000p      0.         999.9820m  
   18.90000p      0.         999.9820m  
   18.95000p      0.         999.9820m  
   19.00000p      0.         999.9820m  
   19.05000p      0.         999.9820m  
   19.10000p      0.         999.9820m  
   19.15000p      0.         999.9820m  
   19.20000p      0.         999.9820m  
   19.25000p      0.         999.9820m  
   19.30000p      0.         999.9820m  
   19.35000p      0.         999.9820m  
   19.40000p      0.         999.9820m  
   19.45000p      0.         999.9820m  
   19.50000p      0.         999.9820m  
   19.55000p      0.         999.9820m  
   19.60000p      0.         999.9820m  
   19.65000p      0.         999.9820m  
   19.70000p      0.         999.9820m  
   19.75000p      0.         999.9820m  
   19.80000p      0.         999.9820m  
   19.85000p      0.         999.9820m  
   19.90000p      0.         999.9820m  
   19.95000p      0.         999.9820m  
   20.00000p      0.         999.9820m  
   20.05000p      0.         999.9820m  
   20.10000p      0.         999.9820m  
   20.15000p      0.         999.9820m  
   20.20000p      0.         999.9820m  
   20.25000p      0.         999.9820m  
   20.30000p      0.         999.9820m  
   20.35000p      0.         999.9820m  
   20.40000p      0.         999.9820m  
   20.45000p      0.         999.9820m  
   20.50000p      0.         999.9820m  
   20.55000p      0.         999.9820m  
   20.60000p      0.         999.9820m  
   20.65000p      0.         999.9820m  
   20.70000p      0.         999.9820m  
   20.75000p      0.         999.9820m  
   20.80000p      0.         999.9820m  
   20.85000p      0.         999.9820m  
   20.90000p      0.         999.9820m  
   20.95000p      0.         999.9820m  
   21.00000p      0.         999.9820m  
   21.05000p      0.         999.9820m  
   21.10000p      0.         999.9820m  
   21.15000p      0.         999.9820m  
   21.20000p      0.         999.9820m  
   21.25000p      0.         999.9820m  
   21.30000p      0.         999.9820m  
   21.35000p      0.         999.9820m  
   21.40000p      0.         999.9820m  
   21.45000p      0.         999.9820m  
   21.50000p      0.         999.9820m  
   21.55000p      0.         999.9820m  
   21.60000p      0.         999.9820m  
   21.65000p      0.         999.9820m  
   21.70000p      0.         999.9820m  
   21.75000p      0.         999.9820m  
   21.80000p      0.         999.9820m  
   21.85000p      0.         999.9820m  
   21.90000p      0.         999.9820m  
   21.95000p      0.         999.9820m  
   22.00000p      0.         999.9820m  
   22.05000p      0.         999.9820m  
   22.10000p      0.         999.9820m  
   22.15000p      0.         999.9820m  
   22.20000p      0.         999.9820m  
   22.25000p      0.         999.9820m  
   22.30000p      0.         999.9820m  
   22.35000p      0.         999.9820m  
   22.40000p      0.         999.9820m  
   22.45000p      0.         999.9820m  
   22.50000p      0.         999.9820m  
   22.55000p      0.         999.9820m  
   22.60000p      0.         999.9820m  
   22.65000p      0.         999.9820m  
   22.70000p      0.         999.9820m  
   22.75000p      0.         999.9820m  
   22.80000p      0.         999.9820m  
   22.85000p      0.         999.9820m  
   22.90000p      0.         999.9820m  
   22.95000p      0.         999.9820m  
   23.00000p      0.         999.9820m  
   23.05000p      0.         999.9820m  
   23.10000p      0.         999.9820m  
   23.15000p      0.         999.9820m  
   23.20000p      0.         999.9820m  
   23.25000p      0.         999.9820m  
   23.30000p      0.         999.9820m  
   23.35000p      0.         999.9820m  
   23.40000p      0.         999.9820m  
   23.45000p      0.         999.9820m  
   23.50000p      0.         999.9820m  
   23.55000p      0.         999.9820m  
   23.60000p      0.         999.9820m  
   23.65000p      0.         999.9820m  
   23.70000p      0.         999.9820m  
   23.75000p      0.         999.9820m  
   23.80000p      0.         999.9820m  
   23.85000p      0.         999.9820m  
   23.90000p      0.         999.9820m  
   23.95000p      0.         999.9820m  
   24.00000p      0.         999.9820m  
   24.05000p      0.         999.9820m  
   24.10000p      0.         999.9820m  
   24.15000p      0.         999.9820m  
   24.20000p      0.         999.9820m  
   24.25000p      0.         999.9820m  
   24.30000p      0.         999.9820m  
   24.35000p      0.         999.9820m  
   24.40000p      0.         999.9820m  
   24.45000p      0.         999.9820m  
   24.50000p      0.         999.9820m  
   24.55000p      0.         999.9820m  
   24.60000p      0.         999.9820m  
   24.65000p      0.         999.9820m  
   24.70000p      0.         999.9820m  
   24.75000p      0.         999.9820m  
   24.80000p      0.         999.9820m  
   24.85000p      0.         999.9820m  
   24.90000p      0.         999.9820m  
   24.95000p      0.         999.9820m  
   25.00000p      0.         999.9820m  
   25.05000p      0.         999.9820m  
   25.10000p      0.         999.9820m  
   25.15000p      0.         999.9820m  
   25.20000p      0.         999.9820m  
   25.25000p      0.         999.9820m  
   25.30000p      0.         999.9820m  
   25.35000p      0.         999.9820m  
   25.40000p      0.         999.9820m  
   25.45000p      0.         999.9820m  
   25.50000p      0.         999.9820m  
   25.55000p      0.         999.9820m  
   25.60000p      0.         999.9820m  
   25.65000p      0.         999.9820m  
   25.70000p      0.         999.9820m  
   25.75000p      0.         999.9820m  
   25.80000p      0.         999.9820m  
   25.85000p      0.         999.9820m  
   25.90000p      0.         999.9820m  
   25.95000p      0.         999.9820m  
   26.00000p      0.         999.9820m  
   26.05000p      0.         999.9820m  
   26.10000p      0.         999.9820m  
   26.15000p      0.         999.9820m  
   26.20000p      0.         999.9820m  
   26.25000p      0.         999.9820m  
   26.30000p      0.         999.9820m  
   26.35000p      0.         999.9820m  
   26.40000p      0.         999.9820m  
   26.45000p      0.         999.9820m  
   26.50000p      0.         999.9820m  
   26.55000p      0.         999.9820m  
   26.60000p      0.         999.9820m  
   26.65000p      0.         999.9820m  
   26.70000p      0.         999.9820m  
   26.75000p      0.         999.9820m  
   26.80000p      0.         999.9820m  
   26.85000p      0.         999.9820m  
   26.90000p      0.         999.9820m  
   26.95000p      0.         999.9820m  
   27.00000p      0.         999.9820m  
   27.05000p      0.         999.9820m  
   27.10000p      0.         999.9820m  
   27.15000p      0.         999.9820m  
   27.20000p      0.         999.9820m  
   27.25000p      0.         999.9820m  
   27.30000p      0.         999.9820m  
   27.35000p      0.         999.9820m  
   27.40000p      0.         999.9820m  
   27.45000p      0.         999.9820m  
   27.50000p      0.         999.9820m  
   27.55000p      0.         999.9820m  
   27.60000p      0.         999.9820m  
   27.65000p      0.         999.9820m  
   27.70000p      0.         999.9820m  
   27.75000p      0.         999.9820m  
   27.80000p      0.         999.9820m  
   27.85000p      0.         999.9820m  
   27.90000p      0.         999.9820m  
   27.95000p      0.         999.9820m  
   28.00000p      0.         999.9820m  
   28.05000p      0.         999.9820m  
   28.10000p      0.         999.9820m  
   28.15000p      0.         999.9820m  
   28.20000p      0.         999.9820m  
   28.25000p      0.         999.9820m  
   28.30000p      0.         999.9820m  
   28.35000p      0.         999.9820m  
   28.40000p      0.         999.9820m  
   28.45000p      0.         999.9820m  
   28.50000p      0.         999.9820m  
   28.55000p      0.         999.9820m  
   28.60000p      0.         999.9820m  
   28.65000p      0.         999.9820m  
   28.70000p      0.         999.9820m  
   28.75000p      0.         999.9820m  
   28.80000p      0.         999.9820m  
   28.85000p      0.         999.9820m  
   28.90000p      0.         999.9820m  
   28.95000p      0.         999.9820m  
   29.00000p      0.         999.9820m  
   29.05000p      0.         999.9820m  
   29.10000p      0.         999.9820m  
   29.15000p      0.         999.9820m  
   29.20000p      0.         999.9820m  
   29.25000p      0.         999.9820m  
   29.30000p      0.         999.9820m  
   29.35000p      0.         999.9820m  
   29.40000p      0.         999.9820m  
   29.45000p      0.         999.9820m  
   29.50000p      0.         999.9820m  
   29.55000p      0.         999.9820m  
   29.60000p      0.         999.9820m  
   29.65000p      0.         999.9820m  
   29.70000p      0.         999.9820m  
   29.75000p      0.         999.9820m  
   29.80000p      0.         999.9820m  
   29.85000p      0.         999.9820m  
   29.90000p      0.         999.9820m  
   29.95000p      0.         999.9820m  
   30.00000p      0.         999.9820m  
   30.05000p      0.         999.9820m  
   30.10000p      0.         999.9820m  
   30.15000p      0.         999.9820m  
   30.20000p      0.         999.9820m  
   30.25000p      0.         999.9820m  
   30.30000p      0.         999.9820m  
   30.35000p      0.         999.9820m  
   30.40000p      0.         999.9820m  
   30.45000p      0.         999.9820m  
   30.50000p      0.         999.9820m  
   30.55000p      0.         999.9820m  
   30.60000p      0.         999.9820m  
   30.65000p      0.         999.9820m  
   30.70000p      0.         999.9820m  
   30.75000p      0.         999.9820m  
   30.80000p      0.         999.9820m  
   30.85000p      0.         999.9820m  
   30.90000p      0.         999.9820m  
   30.95000p      0.         999.9820m  
   31.00000p      0.         999.9820m  
   31.05000p      0.         999.9820m  
   31.10000p      0.         999.9820m  
   31.15000p      0.         999.9820m  
   31.20000p      0.         999.9820m  
   31.25000p      0.         999.9820m  
   31.30000p      0.         999.9820m  
   31.35000p      0.         999.9820m  
   31.40000p      0.         999.9820m  
   31.45000p      0.         999.9820m  
   31.50000p      0.         999.9820m  
   31.55000p      0.         999.9820m  
   31.60000p      0.         999.9820m  
   31.65000p      0.         999.9820m  
   31.70000p      0.         999.9820m  
   31.75000p      0.         999.9820m  
   31.80000p      0.         999.9820m  
   31.85000p      0.         999.9820m  
   31.90000p      0.         999.9820m  
   31.95000p      0.         999.9820m  
   32.00000p      0.         999.9820m  
   32.05000p      0.         999.9820m  
   32.10000p      0.         999.9820m  
   32.15000p      0.         999.9820m  
   32.20000p      0.         999.9820m  
   32.25000p      0.         999.9820m  
   32.30000p      0.         999.9820m  
   32.35000p      0.         999.9820m  
   32.40000p      0.         999.9820m  
   32.45000p      0.         999.9820m  
   32.50000p      0.         999.9820m  
   32.55000p      0.         999.9820m  
   32.60000p      0.         999.9820m  
   32.65000p      0.         999.9820m  
   32.70000p      0.         999.9820m  
   32.75000p      0.         999.9820m  
   32.80000p      0.         999.9820m  
   32.85000p      0.         999.9820m  
   32.90000p      0.         999.9820m  
   32.95000p      0.         999.9820m  
   33.00000p      0.         999.9820m  
   33.05000p      0.         999.9820m  
   33.10000p      0.         999.9820m  
   33.15000p      0.         999.9820m  
   33.20000p      0.         999.9820m  
   33.25000p      0.         999.9820m  
   33.30000p      0.         999.9820m  
   33.35000p      0.         999.9820m  
   33.40000p      0.         999.9820m  
   33.45000p      0.         999.9820m  
   33.50000p      0.         999.9820m  
   33.55000p      0.         999.9820m  
   33.60000p      0.         999.9820m  
   33.65000p      0.         999.9820m  
   33.70000p      0.         999.9820m  
   33.75000p      0.         999.9820m  
   33.80000p      0.         999.9820m  
   33.85000p      0.         999.9820m  
   33.90000p      0.         999.9820m  
   33.95000p      0.         999.9820m  
   34.00000p      0.         999.9820m  
   34.05000p      0.         999.9820m  
   34.10000p      0.         999.9820m  
   34.15000p      0.         999.9820m  
   34.20000p      0.         999.9820m  
   34.25000p      0.         999.9820m  
   34.30000p      0.         999.9820m  
   34.35000p      0.         999.9820m  
   34.40000p      0.         999.9820m  
   34.45000p      0.         999.9820m  
   34.50000p      0.         999.9820m  
   34.55000p      0.         999.9820m  
   34.60000p      0.         999.9820m  
   34.65000p      0.         999.9820m  
   34.70000p      0.         999.9820m  
   34.75000p      0.         999.9820m  
   34.80000p      0.         999.9820m  
   34.85000p      0.         999.9820m  
   34.90000p      0.         999.9820m  
   34.95000p      0.         999.9820m  
   35.00000p      0.         999.9820m  
   35.05000p      0.         999.9820m  
   35.10000p      0.         999.9820m  
   35.15000p      0.         999.9820m  
   35.20000p      0.         999.9820m  
   35.25000p      0.         999.9820m  
   35.30000p      0.         999.9820m  
   35.35000p      0.         999.9820m  
   35.40000p      0.         999.9820m  
   35.45000p      0.         999.9820m  
   35.50000p      0.         999.9820m  
   35.55000p      0.         999.9820m  
   35.60000p      0.         999.9820m  
   35.65000p      0.         999.9820m  
   35.70000p      0.         999.9820m  
   35.75000p      0.         999.9820m  
   35.80000p      0.         999.9820m  
   35.85000p      0.         999.9820m  
   35.90000p      0.         999.9820m  
   35.95000p      0.         999.9820m  
   36.00000p      0.         999.9820m  
   36.05000p      0.         999.9820m  
   36.10000p      0.         999.9820m  
   36.15000p      0.         999.9820m  
   36.20000p      0.         999.9820m  
   36.25000p      0.         999.9820m  
   36.30000p      0.         999.9820m  
   36.35000p      0.         999.9820m  
   36.40000p      0.         999.9820m  
   36.45000p      0.         999.9820m  
   36.50000p      0.         999.9820m  
   36.55000p      0.         999.9820m  
   36.60000p      0.         999.9820m  
   36.65000p      0.         999.9820m  
   36.70000p      0.         999.9820m  
   36.75000p      0.         999.9820m  
   36.80000p      0.         999.9820m  
   36.85000p      0.         999.9820m  
   36.90000p      0.         999.9820m  
   36.95000p      0.         999.9820m  
   37.00000p      0.         999.9820m  
   37.05000p      0.         999.9820m  
   37.10000p      0.         999.9820m  
   37.15000p      0.         999.9820m  
   37.20000p      0.         999.9820m  
   37.25000p      0.         999.9820m  
   37.30000p      0.         999.9820m  
   37.35000p      0.         999.9820m  
   37.40000p      0.         999.9820m  
   37.45000p      0.         999.9820m  
   37.50000p      0.         999.9820m  
   37.55000p      0.         999.9820m  
   37.60000p      0.         999.9820m  
   37.65000p      0.         999.9820m  
   37.70000p      0.         999.9820m  
   37.75000p      0.         999.9820m  
   37.80000p      0.         999.9820m  
   37.85000p      0.         999.9820m  
   37.90000p      0.         999.9820m  
   37.95000p      0.         999.9820m  
   38.00000p      0.         999.9820m  
   38.05000p      0.         999.9820m  
   38.10000p      0.         999.9820m  
   38.15000p      0.         999.9820m  
   38.20000p      0.         999.9820m  
   38.25000p      0.         999.9820m  
   38.30000p      0.         999.9820m  
   38.35000p      0.         999.9820m  
   38.40000p      0.         999.9820m  
   38.45000p      0.         999.9820m  
   38.50000p      0.         999.9820m  
   38.55000p      0.         999.9820m  
   38.60000p      0.         999.9820m  
   38.65000p      0.         999.9820m  
   38.70000p      0.         999.9820m  
   38.75000p      0.         999.9820m  
   38.80000p      0.         999.9820m  
   38.85000p      0.         999.9820m  
   38.90000p      0.         999.9820m  
   38.95000p      0.         999.9820m  
   39.00000p      0.         999.9820m  
   39.05000p      0.         999.9820m  
   39.10000p      0.         999.9820m  
   39.15000p      0.         999.9820m  
   39.20000p      0.         999.9820m  
   39.25000p      0.         999.9820m  
   39.30000p      0.         999.9820m  
   39.35000p      0.         999.9820m  
   39.40000p      0.         999.9820m  
   39.45000p      0.         999.9820m  
   39.50000p      0.         999.9820m  
   39.55000p      0.         999.9820m  
   39.60000p      0.         999.9820m  
   39.65000p      0.         999.9820m  
   39.70000p      0.         999.9820m  
   39.75000p      0.         999.9820m  
   39.80000p      0.         999.9820m  
   39.85000p      0.         999.9820m  
   39.90000p      0.         999.9820m  
   39.95000p      0.         999.9820m  
   40.00000p      0.         999.9820m  
   40.05000p      0.         999.9820m  
   40.10000p      0.         999.9820m  
   40.15000p      0.         999.9820m  
   40.20000p      0.         999.9820m  
   40.25000p      0.         999.9820m  
   40.30000p      0.         999.9820m  
   40.35000p      0.         999.9820m  
   40.40000p      0.         999.9820m  
   40.45000p      0.         999.9820m  
   40.50000p      0.         999.9820m  
   40.55000p      0.         999.9820m  
   40.60000p      0.         999.9820m  
   40.65000p      0.         999.9820m  
   40.70000p      0.         999.9820m  
   40.75000p      0.         999.9820m  
   40.80000p      0.         999.9820m  
   40.85000p      0.         999.9820m  
   40.90000p      0.         999.9820m  
   40.95000p      0.         999.9820m  
   41.00000p      0.         999.9820m  
   41.05000p      0.         999.9820m  
   41.10000p      0.         999.9820m  
   41.15000p      0.         999.9820m  
   41.20000p      0.         999.9820m  
   41.25000p      0.         999.9820m  
   41.30000p      0.         999.9820m  
   41.35000p      0.         999.9820m  
   41.40000p      0.         999.9820m  
   41.45000p      0.         999.9820m  
   41.50000p      0.         999.9820m  
   41.55000p      0.         999.9820m  
   41.60000p      0.         999.9820m  
   41.65000p      0.         999.9820m  
   41.70000p      0.         999.9820m  
   41.75000p      0.         999.9820m  
   41.80000p      0.         999.9820m  
   41.85000p      0.         999.9820m  
   41.90000p      0.         999.9820m  
   41.95000p      0.         999.9820m  
   42.00000p      0.         999.9820m  
   42.05000p      0.         999.9820m  
   42.10000p      0.         999.9820m  
   42.15000p      0.         999.9820m  
   42.20000p      0.         999.9820m  
   42.25000p      0.         999.9820m  
   42.30000p      0.         999.9820m  
   42.35000p      0.         999.9820m  
   42.40000p      0.         999.9820m  
   42.45000p      0.         999.9820m  
   42.50000p      0.         999.9820m  
   42.55000p      0.         999.9820m  
   42.60000p      0.         999.9820m  
   42.65000p      0.         999.9820m  
   42.70000p      0.         999.9820m  
   42.75000p      0.         999.9820m  
   42.80000p      0.         999.9820m  
   42.85000p      0.         999.9820m  
   42.90000p      0.         999.9820m  
   42.95000p      0.         999.9820m  
   43.00000p      0.         999.9820m  
   43.05000p      0.         999.9820m  
   43.10000p      0.         999.9820m  
   43.15000p      0.         999.9820m  
   43.20000p      0.         999.9820m  
   43.25000p      0.         999.9820m  
   43.30000p      0.         999.9820m  
   43.35000p      0.         999.9820m  
   43.40000p      0.         999.9820m  
   43.45000p      0.         999.9820m  
   43.50000p      0.         999.9820m  
   43.55000p      0.         999.9820m  
   43.60000p      0.         999.9820m  
   43.65000p      0.         999.9820m  
   43.70000p      0.         999.9820m  
   43.75000p      0.         999.9820m  
   43.80000p      0.         999.9820m  
   43.85000p      0.         999.9820m  
   43.90000p      0.         999.9820m  
   43.95000p      0.         999.9820m  
   44.00000p      0.         999.9820m  
   44.05000p      0.         999.9820m  
   44.10000p      0.         999.9820m  
   44.15000p      0.         999.9820m  
   44.20000p      0.         999.9820m  
   44.25000p      0.         999.9820m  
   44.30000p      0.         999.9820m  
   44.35000p      0.         999.9820m  
   44.40000p      0.         999.9820m  
   44.45000p      0.         999.9820m  
   44.50000p      0.         999.9820m  
   44.55000p      0.         999.9820m  
   44.60000p      0.         999.9820m  
   44.65000p      0.         999.9820m  
   44.70000p      0.         999.9820m  
   44.75000p      0.         999.9820m  
   44.80000p      0.         999.9820m  
   44.85000p      0.         999.9820m  
   44.90000p      0.         999.9820m  
   44.95000p      0.         999.9820m  
   45.00000p      0.         999.9820m  
   45.05000p      0.         999.9820m  
   45.10000p      0.         999.9820m  
   45.15000p      0.         999.9820m  
   45.20000p      0.         999.9820m  
   45.25000p      0.         999.9820m  
   45.30000p      0.         999.9820m  
   45.35000p      0.         999.9820m  
   45.40000p      0.         999.9820m  
   45.45000p      0.         999.9820m  
   45.50000p      0.         999.9820m  
   45.55000p      0.         999.9820m  
   45.60000p      0.         999.9820m  
   45.65000p      0.         999.9820m  
   45.70000p      0.         999.9820m  
   45.75000p      0.         999.9820m  
   45.80000p      0.         999.9820m  
   45.85000p      0.         999.9820m  
   45.90000p      0.         999.9820m  
   45.95000p      0.         999.9820m  
   46.00000p      0.         999.9820m  
   46.05000p      0.         999.9820m  
   46.10000p      0.         999.9820m  
   46.15000p      0.         999.9820m  
   46.20000p      0.         999.9820m  
   46.25000p      0.         999.9820m  
   46.30000p      0.         999.9820m  
   46.35000p      0.         999.9820m  
   46.40000p      0.         999.9820m  
   46.45000p      0.         999.9820m  
   46.50000p      0.         999.9820m  
   46.55000p      0.         999.9820m  
   46.60000p      0.         999.9820m  
   46.65000p      0.         999.9820m  
   46.70000p      0.         999.9820m  
   46.75000p      0.         999.9820m  
   46.80000p      0.         999.9820m  
   46.85000p      0.         999.9820m  
   46.90000p      0.         999.9820m  
   46.95000p      0.         999.9820m  
   47.00000p      0.         999.9820m  
   47.05000p      0.         999.9820m  
   47.10000p      0.         999.9820m  
   47.15000p      0.         999.9820m  
   47.20000p      0.         999.9820m  
   47.25000p      0.         999.9820m  
   47.30000p      0.         999.9820m  
   47.35000p      0.         999.9820m  
   47.40000p      0.         999.9820m  
   47.45000p      0.         999.9820m  
   47.50000p      0.         999.9820m  
   47.55000p      0.         999.9820m  
   47.60000p      0.         999.9820m  
   47.65000p      0.         999.9820m  
   47.70000p      0.         999.9820m  
   47.75000p      0.         999.9820m  
   47.80000p      0.         999.9820m  
   47.85000p      0.         999.9820m  
   47.90000p      0.         999.9820m  
   47.95000p      0.         999.9820m  
   48.00000p      0.         999.9820m  
   48.05000p      0.         999.9820m  
   48.10000p      0.         999.9820m  
   48.15000p      0.         999.9820m  
   48.20000p      0.         999.9820m  
   48.25000p      0.         999.9820m  
   48.30000p      0.         999.9820m  
   48.35000p      0.         999.9820m  
   48.40000p      0.         999.9820m  
   48.45000p      0.         999.9820m  
   48.50000p      0.         999.9820m  
   48.55000p      0.         999.9820m  
   48.60000p      0.         999.9820m  
   48.65000p      0.         999.9820m  
   48.70000p      0.         999.9820m  
   48.75000p      0.         999.9820m  
   48.80000p      0.         999.9820m  
   48.85000p      0.         999.9820m  
   48.90000p      0.         999.9820m  
   48.95000p      0.         999.9820m  
   49.00000p      0.         999.9820m  
   49.05000p      0.         999.9820m  
   49.10000p      0.         999.9820m  
   49.15000p      0.         999.9820m  
   49.20000p      0.         999.9820m  
   49.25000p      0.         999.9820m  
   49.30000p      0.         999.9820m  
   49.35000p      0.         999.9820m  
   49.40000p      0.         999.9820m  
   49.45000p      0.         999.9820m  
   49.50000p      0.         999.9820m  
   49.55000p      0.         999.9820m  
   49.60000p      0.         999.9820m  
   49.65000p      0.         999.9820m  
   49.70000p      0.         999.9820m  
   49.75000p      0.         999.9820m  
   49.80000p      0.         999.9820m  
   49.85000p      0.         999.9820m  
   49.90000p      0.         999.9820m  
   49.95000p      0.         999.9820m  
   50.00000p      0.         999.9820m  
   50.05000p      5.0000m      1.2697   
   50.10000p      5.0000m      1.5826   
   50.15000p      5.0000m      1.8618   
   50.20000p      5.0000m      2.1265   
   50.25000p      5.0000m      2.3800   
   50.30000p      5.0000m      2.6118   
   50.35000p      5.0000m      2.8400   
   50.40000p      5.0000m      3.0316   
   50.45000p      5.0000m      3.2232   
   50.50000p      5.0000m      3.4147   
   50.55000p      5.0000m      3.5566   
   50.60000p      5.0000m      3.6868   
   50.65000p      5.0000m      3.8169   
   50.70000p      5.0000m      3.9471   
   50.75000p      5.0000m      4.0773   
   50.80000p      5.0000m      4.2075   
   50.85000p      5.0000m      4.2741   
   50.90000p      5.0000m      4.3400   
   50.95000p      5.0000m      4.4058   
   51.00000p      5.0000m      4.4716   
   51.05000p      5.0000m      4.5375   
   51.10000p      5.0000m      4.6033   
   51.15000p      5.0000m      4.6691   
   51.20000p      5.0000m      4.7253   
   51.25000p      5.0000m      4.7545   
   51.30000p      5.0000m      4.7836   
   51.35000p      5.0000m      4.8128   
   51.40000p      5.0000m      4.8420   
   51.45000p      5.0000m      4.8711   
   51.50000p      5.0000m      4.8955   
   51.55000p      5.0000m      4.9108   
   51.60000p      5.0000m      4.9261   
   51.65000p      5.0000m      4.9413   
   51.70000p      5.0000m      4.9566   
   51.75000p      5.0000m      4.9718   
   51.80000p      5.0000m      4.9856   
   51.85000p      5.0000m      4.9935   
   51.90000p      5.0000m      5.0013   
   51.95000p      5.0000m      5.0092   
   52.00000p      5.0000m      5.0171   
   52.05000p      5.0000m      5.0249   
   52.10000p      5.0000m      5.0328   
   52.15000p      5.0000m      5.0391   
   52.20000p      5.0000m      5.0427   
   52.25000p      5.0000m      5.0463   
   52.30000p      5.0000m      5.0500   
   52.35000p      5.0000m      5.0536   
   52.40000p      5.0000m      5.0572   
   52.45000p      5.0000m      5.0609   
   52.50000p      5.0000m      5.0645   
   52.55000p      5.0000m      5.0681   
   52.60000p      5.0000m      5.0715   
   52.65000p      5.0000m      5.0728   
   52.70000p      5.0000m      5.0741   
   52.75000p      5.0000m      5.0753   
   52.80000p      5.0000m      5.0766   
   52.85000p      5.0000m      5.0778   
   52.90000p      5.0000m      5.0791   
   52.95000p      5.0000m      5.0804   
   53.00000p      5.0000m      5.0816   
   53.05000p      5.0000m      5.0829   
   53.10000p      5.0000m      5.0842   
   53.15000p      5.0000m      5.0854   
   53.20000p      5.0000m      5.0867   
   53.25000p      5.0000m      5.0870   
   53.30000p      5.0000m      5.0873   
   53.35000p      5.0000m      5.0876   
   53.40000p      5.0000m      5.0879   
   53.45000p      5.0000m      5.0882   
   53.50000p      5.0000m      5.0885   
   53.55000p      5.0000m      5.0888   
   53.60000p      5.0000m      5.0891   
   53.65000p      5.0000m      5.0894   
   53.70000p      5.0000m      5.0897   
   53.75000p      5.0000m      5.0900   
   53.80000p      5.0000m      5.0903   
   53.85000p      5.0000m      5.0906   
   53.90000p      5.0000m      5.0909   
   53.95000p      5.0000m      5.0912   
   54.00000p      5.0000m      5.0915   
   54.05000p      5.0000m      5.0917   
   54.10000p      5.0000m      5.0918   
   54.15000p      5.0000m      5.0918   
   54.20000p      5.0000m      5.0918   
   54.25000p      5.0000m      5.0919   
   54.30000p      5.0000m      5.0919   
   54.35000p      5.0000m      5.0919   
   54.40000p      5.0000m      5.0919   
   54.45000p      5.0000m      5.0920   
   54.50000p      5.0000m      5.0920   
   54.55000p      5.0000m      5.0920   
   54.60000p      5.0000m      5.0921   
   54.65000p      5.0000m      5.0921   
   54.70000p      5.0000m      5.0921   
   54.75000p      5.0000m      5.0922   
   54.80000p      5.0000m      5.0922   
   54.85000p      5.0000m      5.0922   
   54.90000p      5.0000m      5.0923   
   54.95000p      5.0000m      5.0923   
   55.00000p      5.0000m      5.0923   
   55.05000p      5.0000m      5.0923   
   55.10000p      5.0000m      5.0924   
   55.15000p      5.0000m      5.0924   
   55.20000p      5.0000m      5.0924   
   55.25000p      5.0000m      5.0924   
   55.30000p      5.0000m      5.0924   
   55.35000p      5.0000m      5.0924   
   55.40000p      5.0000m      5.0924   
   55.45000p      5.0000m      5.0924   
   55.50000p      5.0000m      5.0924   
   55.55000p      5.0000m      5.0924   
   55.60000p      5.0000m      5.0924   
   55.65000p      5.0000m      5.0924   
   55.70000p      5.0000m      5.0924   
   55.75000p      5.0000m      5.0924   
   55.80000p      5.0000m      5.0924   
   55.85000p      5.0000m      5.0924   
   55.90000p      5.0000m      5.0924   
   55.95000p      5.0000m      5.0924   
   56.00000p      5.0000m      5.0924   
   56.05000p      5.0000m      5.0924   
   56.10000p      5.0000m      5.0924   
   56.15000p      5.0000m      5.0924   
   56.20000p      5.0000m      5.0924   
   56.25000p      5.0000m      5.0924   
   56.30000p      5.0000m      5.0924   
   56.35000p      5.0000m      5.0924   
   56.40000p      5.0000m      5.0924   
   56.45000p      5.0000m      5.0924   
   56.50000p      5.0000m      5.0924   
   56.55000p      5.0000m      5.0924   
   56.60000p      5.0000m      5.0924   
   56.65000p      5.0000m      5.0924   
   56.70000p      5.0000m      5.0924   
   56.75000p      5.0000m      5.0924   
   56.80000p      5.0000m      5.0924   
   56.85000p      5.0000m      5.0924   
   56.90000p      5.0000m      5.0924   
   56.95000p      5.0000m      5.0924   
   57.00000p      5.0000m      5.0924   
   57.05000p      5.0000m      5.0924   
   57.10000p      5.0000m      5.0924   
   57.15000p      5.0000m      5.0924   
   57.20000p      5.0000m      5.0924   
   57.25000p      5.0000m      5.0924   
   57.30000p      5.0000m      5.0924   
   57.35000p      5.0000m      5.0924   
   57.40000p      5.0000m      5.0924   
   57.45000p      5.0000m      5.0924   
   57.50000p      5.0000m      5.0924   
   57.55000p      5.0000m      5.0924   
   57.60000p      5.0000m      5.0924   
   57.65000p      5.0000m      5.0924   
   57.70000p      5.0000m      5.0924   
   57.75000p      5.0000m      5.0924   
   57.80000p      5.0000m      5.0924   
   57.85000p      5.0000m      5.0924   
   57.90000p      5.0000m      5.0924   
   57.95000p      5.0000m      5.0924   
   58.00000p      5.0000m      5.0924   
   58.05000p      5.0000m      5.0924   
   58.10000p      5.0000m      5.0924   
   58.15000p      5.0000m      5.0924   
   58.20000p      5.0000m      5.0924   
   58.25000p      5.0000m      5.0924   
   58.30000p      5.0000m      5.0924   
   58.35000p      5.0000m      5.0924   
   58.40000p      5.0000m      5.0924   
   58.45000p      5.0000m      5.0924   
   58.50000p      5.0000m      5.0924   
   58.55000p      5.0000m      5.0924   
   58.60000p      5.0000m      5.0924   
   58.65000p      5.0000m      5.0924   
   58.70000p      5.0000m      5.0924   
   58.75000p      5.0000m      5.0924   
   58.80000p      5.0000m      5.0924   
   58.85000p      5.0000m      5.0924   
   58.90000p      5.0000m      5.0924   
   58.95000p      5.0000m      5.0924   
   59.00000p      5.0000m      5.0924   
   59.05000p      5.0000m      5.0924   
   59.10000p      5.0000m      5.0924   
   59.15000p      5.0000m      5.0924   
   59.20000p      5.0000m      5.0924   
   59.25000p      5.0000m      5.0924   
   59.30000p      5.0000m      5.0924   
   59.35000p      5.0000m      5.0924   
   59.40000p      5.0000m      5.0924   
   59.45000p      5.0000m      5.0924   
   59.50000p      5.0000m      5.0924   
   59.55000p      5.0000m      5.0924   
   59.60000p      5.0000m      5.0924   
   59.65000p      5.0000m      5.0924   
   59.70000p      5.0000m      5.0924   
   59.75000p      5.0000m      5.0924   
   59.80000p      5.0000m      5.0924   
   59.85000p      5.0000m      5.0924   
   59.90000p      5.0000m      5.0924   
   59.95000p      5.0000m      5.0924   
   60.00000p      5.0000m      5.0924   
   60.05000p      5.0000m      5.0924   
   60.10000p      5.0000m      5.0924   
   60.15000p      5.0000m      5.0924   
   60.20000p      5.0000m      5.0924   
   60.25000p      5.0000m      5.0924   
   60.30000p      5.0000m      5.0924   
   60.35000p      5.0000m      5.0924   
   60.40000p      5.0000m      5.0924   
   60.45000p      5.0000m      5.0924   
   60.50000p      5.0000m      5.0924   
   60.55000p      5.0000m      5.0924   
   60.60000p      5.0000m      5.0924   
   60.65000p      5.0000m      5.0924   
   60.70000p      5.0000m      5.0924   
   60.75000p      5.0000m      5.0924   
   60.80000p      5.0000m      5.0924   
   60.85000p      5.0000m      5.0924   
   60.90000p      5.0000m      5.0924   
   60.95000p      5.0000m      5.0924   
   61.00000p      5.0000m      5.0924   
   61.05000p      5.0000m      5.0924   
   61.10000p      5.0000m      5.0924   
   61.15000p      5.0000m      5.0924   
   61.20000p      5.0000m      5.0924   
   61.25000p      5.0000m      5.0923   
   61.30000p      5.0000m      5.0923   
   61.35000p      5.0000m      5.0923   
   61.40000p      5.0000m      5.0923   
   61.45000p      5.0000m      5.0923   
   61.50000p      5.0000m      5.0923   
   61.55000p      5.0000m      5.0923   
   61.60000p      5.0000m      5.0923   
   61.65000p      5.0000m      5.0923   
   61.70000p      5.0000m      5.0923   
   61.75000p      5.0000m      5.0923   
   61.80000p      5.0000m      5.0923   
   61.85000p      5.0000m      5.0923   
   61.90000p      5.0000m      5.0923   
   61.95000p      5.0000m      5.0923   
   62.00000p      5.0000m      5.0923   
   62.05000p      5.0000m      5.0923   
   62.10000p      5.0000m      5.0923   
   62.15000p      5.0000m      5.0923   
   62.20000p      5.0000m      5.0923   
   62.25000p      5.0000m      5.0923   
   62.30000p      5.0000m      5.0923   
   62.35000p      5.0000m      5.0923   
   62.40000p      5.0000m      5.0923   
   62.45000p      5.0000m      5.0923   
   62.50000p      5.0000m      5.0923   
   62.55000p      5.0000m      5.0923   
   62.60000p      5.0000m      5.0923   
   62.65000p      5.0000m      5.0923   
   62.70000p      5.0000m      5.0923   
   62.75000p      5.0000m      5.0923   
   62.80000p      5.0000m      5.0923   
   62.85000p      5.0000m      5.0923   
   62.90000p      5.0000m      5.0923   
   62.95000p      5.0000m      5.0923   
   63.00000p      5.0000m      5.0923   
   63.05000p      5.0000m      5.0923   
   63.10000p      5.0000m      5.0923   
   63.15000p      5.0000m      5.0923   
   63.20000p      5.0000m      5.0923   
   63.25000p      5.0000m      5.0923   
   63.30000p      5.0000m      5.0923   
   63.35000p      5.0000m      5.0923   
   63.40000p      5.0000m      5.0923   
   63.45000p      5.0000m      5.0923   
   63.50000p      5.0000m      5.0923   
   63.55000p      5.0000m      5.0923   
   63.60000p      5.0000m      5.0923   
   63.65000p      5.0000m      5.0923   
   63.70000p      5.0000m      5.0923   
   63.75000p      5.0000m      5.0923   
   63.80000p      5.0000m      5.0923   
   63.85000p      5.0000m      5.0923   
   63.90000p      5.0000m      5.0923   
   63.95000p      5.0000m      5.0923   
   64.00000p      5.0000m      5.0923   
   64.05000p      5.0000m      5.0923   
   64.10000p      5.0000m      5.0923   
   64.15000p      5.0000m      5.0923   
   64.20000p      5.0000m      5.0923   
   64.25000p      5.0000m      5.0923   
   64.30000p      5.0000m      5.0923   
   64.35000p      5.0000m      5.0923   
   64.40000p      5.0000m      5.0923   
   64.45000p      5.0000m      5.0923   
   64.50000p      5.0000m      5.0923   
   64.55000p      5.0000m      5.0923   
   64.60000p      5.0000m      5.0923   
   64.65000p      5.0000m      5.0923   
   64.70000p      5.0000m      5.0923   
   64.75000p      5.0000m      5.0923   
   64.80000p      5.0000m      5.0923   
   64.85000p      5.0000m      5.0923   
   64.90000p      5.0000m      5.0923   
   64.95000p      5.0000m      5.0922   
   65.00000p      5.0000m      5.0922   
   65.05000p      5.0000m      5.0922   
   65.10000p      5.0000m      5.0922   
   65.15000p      5.0000m      5.0922   
   65.20000p      5.0000m      5.0922   
   65.25000p      5.0000m      5.0922   
   65.30000p      5.0000m      5.0922   
   65.35000p      5.0000m      5.0922   
   65.40000p      5.0000m      5.0922   
   65.45000p      5.0000m      5.0922   
   65.50000p      5.0000m      5.0922   
   65.55000p      5.0000m      5.0922   
   65.60000p      5.0000m      5.0922   
   65.65000p      5.0000m      5.0922   
   65.70000p      5.0000m      5.0922   
   65.75000p      5.0000m      5.0922   
   65.80000p      5.0000m      5.0922   
   65.85000p      5.0000m      5.0922   
   65.90000p      5.0000m      5.0922   
   65.95000p      5.0000m      5.0922   
   66.00000p      5.0000m      5.0922   
   66.05000p      5.0000m      5.0922   
   66.10000p      5.0000m      5.0922   
   66.15000p      5.0000m      5.0922   
   66.20000p      5.0000m      5.0922   
   66.25000p      5.0000m      5.0922   
   66.30000p      5.0000m      5.0922   
   66.35000p      5.0000m      5.0922   
   66.40000p      5.0000m      5.0922   
   66.45000p      5.0000m      5.0922   
   66.50000p      5.0000m      5.0922   
   66.55000p      5.0000m      5.0922   
   66.60000p      5.0000m      5.0922   
   66.65000p      5.0000m      5.0922   
   66.70000p      5.0000m      5.0922   
   66.75000p      5.0000m      5.0922   
   66.80000p      5.0000m      5.0922   
   66.85000p      5.0000m      5.0922   
   66.90000p      5.0000m      5.0922   
   66.95000p      5.0000m      5.0922   
   67.00000p      5.0000m      5.0922   
   67.05000p      5.0000m      5.0922   
   67.10000p      5.0000m      5.0922   
   67.15000p      5.0000m      5.0922   
   67.20000p      5.0000m      5.0922   
   67.25000p      5.0000m      5.0922   
   67.30000p      5.0000m      5.0922   
   67.35000p      5.0000m      5.0922   
   67.40000p      5.0000m      5.0922   
   67.45000p      5.0000m      5.0922   
   67.50000p      5.0000m      5.0922   
   67.55000p      5.0000m      5.0922   
   67.60000p      5.0000m      5.0922   
   67.65000p      5.0000m      5.0922   
   67.70000p      5.0000m      5.0922   
   67.75000p      5.0000m      5.0922   
   67.80000p      5.0000m      5.0922   
   67.85000p      5.0000m      5.0922   
   67.90000p      5.0000m      5.0922   
   67.95000p      5.0000m      5.0922   
   68.00000p      5.0000m      5.0922   
   68.05000p      5.0000m      5.0922   
   68.10000p      5.0000m      5.0922   
   68.15000p      5.0000m      5.0922   
   68.20000p      5.0000m      5.0922   
   68.25000p      5.0000m      5.0922   
   68.30000p      5.0000m      5.0922   
   68.35000p      5.0000m      5.0922   
   68.40000p      5.0000m      5.0922   
   68.45000p      5.0000m      5.0922   
   68.50000p      5.0000m      5.0922   
   68.55000p      5.0000m      5.0922   
   68.60000p      5.0000m      5.0922   
   68.65000p      5.0000m      5.0922   
   68.70000p      5.0000m      5.0922   
   68.75000p      5.0000m      5.0922   
   68.80000p      5.0000m      5.0922   
   68.85000p      5.0000m      5.0922   
   68.90000p      5.0000m      5.0922   
   68.95000p      5.0000m      5.0922   
   69.00000p      5.0000m      5.0922   
   69.05000p      5.0000m      5.0922   
   69.10000p      5.0000m      5.0922   
   69.15000p      5.0000m      5.0922   
   69.20000p      5.0000m      5.0922   
   69.25000p      5.0000m      5.0922   
   69.30000p      5.0000m      5.0922   
   69.35000p      5.0000m      5.0922   
   69.40000p      5.0000m      5.0922   
   69.45000p      5.0000m      5.0922   
   69.50000p      5.0000m      5.0922   
   69.55000p      5.0000m      5.0922   
   69.60000p      5.0000m      5.0922   
   69.65000p      5.0000m      5.0922   
   69.70000p      5.0000m      5.0922   
   69.75000p      5.0000m      5.0922   
   69.80000p      5.0000m      5.0922   
   69.85000p      5.0000m      5.0922   
   69.90000p      5.0000m      5.0922   
   69.95000p      5.0000m      5.0922   
   70.00000p      5.0000m      5.0922   
   70.05000p      5.0000m      5.0922   
   70.10000p      5.0000m      5.0922   
   70.15000p      5.0000m      5.0922   
   70.20000p      5.0000m      5.0922   
   70.25000p      5.0000m      5.0922   
   70.30000p      5.0000m      5.0922   
   70.35000p      5.0000m      5.0922   
   70.40000p      5.0000m      5.0922   
   70.45000p      5.0000m      5.0922   
   70.50000p      5.0000m      5.0922   
   70.55000p      5.0000m      5.0922   
   70.60000p      5.0000m      5.0922   
   70.65000p      5.0000m      5.0922   
   70.70000p      5.0000m      5.0922   
   70.75000p      5.0000m      5.0922   
   70.80000p      5.0000m      5.0922   
   70.85000p      5.0000m      5.0922   
   70.90000p      5.0000m      5.0922   
   70.95000p      5.0000m      5.0922   
   71.00000p      5.0000m      5.0922   
   71.05000p      5.0000m      5.0922   
   71.10000p      5.0000m      5.0922   
   71.15000p      5.0000m      5.0922   
   71.20000p      5.0000m      5.0922   
   71.25000p      5.0000m      5.0922   
   71.30000p      5.0000m      5.0922   
   71.35000p      5.0000m      5.0922   
   71.40000p      5.0000m      5.0922   
   71.45000p      5.0000m      5.0922   
   71.50000p      5.0000m      5.0922   
   71.55000p      5.0000m      5.0922   
   71.60000p      5.0000m      5.0922   
   71.65000p      5.0000m      5.0922   
   71.70000p      5.0000m      5.0922   
   71.75000p      5.0000m      5.0922   
   71.80000p      5.0000m      5.0922   
   71.85000p      5.0000m      5.0922   
   71.90000p      5.0000m      5.0922   
   71.95000p      5.0000m      5.0922   
   72.00000p      5.0000m      5.0922   
   72.05000p      5.0000m      5.0922   
   72.10000p      5.0000m      5.0922   
   72.15000p      5.0000m      5.0922   
   72.20000p      5.0000m      5.0922   
   72.25000p      5.0000m      5.0922   
   72.30000p      5.0000m      5.0922   
   72.35000p      5.0000m      5.0922   
   72.40000p      5.0000m      5.0922   
   72.45000p      5.0000m      5.0922   
   72.50000p      5.0000m      5.0922   
   72.55000p      5.0000m      5.0922   
   72.60000p      5.0000m      5.0922   
   72.65000p      5.0000m      5.0922   
   72.70000p      5.0000m      5.0922   
   72.75000p      5.0000m      5.0922   
   72.80000p      5.0000m      5.0922   
   72.85000p      5.0000m      5.0922   
   72.90000p      5.0000m      5.0922   
   72.95000p      5.0000m      5.0922   
   73.00000p      5.0000m      5.0922   
   73.05000p      5.0000m      5.0922   
   73.10000p      5.0000m      5.0922   
   73.15000p      5.0000m      5.0922   
   73.20000p      5.0000m      5.0922   
   73.25000p      5.0000m      5.0922   
   73.30000p      5.0000m      5.0922   
   73.35000p      5.0000m      5.0922   
   73.40000p      5.0000m      5.0922   
   73.45000p      5.0000m      5.0922   
   73.50000p      5.0000m      5.0922   
   73.55000p      5.0000m      5.0922   
   73.60000p      5.0000m      5.0922   
   73.65000p      5.0000m      5.0922   
   73.70000p      5.0000m      5.0922   
   73.75000p      5.0000m      5.0922   
   73.80000p      5.0000m      5.0922   
   73.85000p      5.0000m      5.0922   
   73.90000p      5.0000m      5.0922   
   73.95000p      5.0000m      5.0922   
   74.00000p      5.0000m      5.0922   
   74.05000p      5.0000m      5.0922   
   74.10000p      5.0000m      5.0922   
   74.15000p      5.0000m      5.0922   
   74.20000p      5.0000m      5.0922   
   74.25000p      5.0000m      5.0922   
   74.30000p      5.0000m      5.0922   
   74.35000p      5.0000m      5.0922   
   74.40000p      5.0000m      5.0922   
   74.45000p      5.0000m      5.0922   
   74.50000p      5.0000m      5.0922   
   74.55000p      5.0000m      5.0922   
   74.60000p      5.0000m      5.0922   
   74.65000p      5.0000m      5.0922   
   74.70000p      5.0000m      5.0922   
   74.75000p      5.0000m      5.0922   
   74.80000p      5.0000m      5.0922   
   74.85000p      5.0000m      5.0922   
   74.90000p      5.0000m      5.0922   
   74.95000p      5.0000m      5.0922   
   75.00000p      5.0000m      5.0922   
   75.05000p      5.0000m      5.0922   
   75.10000p      5.0000m      5.0922   
   75.15000p      5.0000m      5.0922   
   75.20000p      5.0000m      5.0922   
   75.25000p      5.0000m      5.0922   
   75.30000p      5.0000m      5.0922   
   75.35000p      5.0000m      5.0922   
   75.40000p      5.0000m      5.0922   
   75.45000p      5.0000m      5.0922   
   75.50000p      5.0000m      5.0922   
   75.55000p      5.0000m      5.0922   
   75.60000p      5.0000m      5.0922   
   75.65000p      5.0000m      5.0922   
   75.70000p      5.0000m      5.0922   
   75.75000p      5.0000m      5.0922   
   75.80000p      5.0000m      5.0922   
   75.85000p      5.0000m      5.0922   
   75.90000p      5.0000m      5.0922   
   75.95000p      5.0000m      5.0922   
   76.00000p      5.0000m      5.0922   
   76.05000p      5.0000m      5.0922   
   76.10000p      5.0000m      5.0922   
   76.15000p      5.0000m      5.0922   
   76.20000p      5.0000m      5.0922   
   76.25000p      5.0000m      5.0922   
   76.30000p      5.0000m      5.0922   
   76.35000p      5.0000m      5.0922   
   76.40000p      5.0000m      5.0922   
   76.45000p      5.0000m      5.0922   
   76.50000p      5.0000m      5.0922   
   76.55000p      5.0000m      5.0922   
   76.60000p      5.0000m      5.0922   
   76.65000p      5.0000m      5.0922   
   76.70000p      5.0000m      5.0922   
   76.75000p      5.0000m      5.0922   
   76.80000p      5.0000m      5.0922   
   76.85000p      5.0000m      5.0922   
   76.90000p      5.0000m      5.0922   
   76.95000p      5.0000m      5.0922   
   77.00000p      5.0000m      5.0922   
   77.05000p      5.0000m      5.0922   
   77.10000p      5.0000m      5.0922   
   77.15000p      5.0000m      5.0922   
   77.20000p      5.0000m      5.0922   
   77.25000p      5.0000m      5.0922   
   77.30000p      5.0000m      5.0922   
   77.35000p      5.0000m      5.0922   
   77.40000p      5.0000m      5.0922   
   77.45000p      5.0000m      5.0922   
   77.50000p      5.0000m      5.0922   
   77.55000p      5.0000m      5.0922   
   77.60000p      5.0000m      5.0922   
   77.65000p      5.0000m      5.0922   
   77.70000p      5.0000m      5.0922   
   77.75000p      5.0000m      5.0922   
   77.80000p      5.0000m      5.0922   
   77.85000p      5.0000m      5.0922   
   77.90000p      5.0000m      5.0922   
   77.95000p      5.0000m      5.0922   
   78.00000p      5.0000m      5.0922   
   78.05000p      5.0000m      5.0922   
   78.10000p      5.0000m      5.0922   
   78.15000p      5.0000m      5.0922   
   78.20000p      5.0000m      5.0922   
   78.25000p      5.0000m      5.0922   
   78.30000p      5.0000m      5.0922   
   78.35000p      5.0000m      5.0922   
   78.40000p      5.0000m      5.0922   
   78.45000p      5.0000m      5.0922   
   78.50000p      5.0000m      5.0922   
   78.55000p      5.0000m      5.0922   
   78.60000p      5.0000m      5.0922   
   78.65000p      5.0000m      5.0922   
   78.70000p      5.0000m      5.0922   
   78.75000p      5.0000m      5.0922   
   78.80000p      5.0000m      5.0922   
   78.85000p      5.0000m      5.0922   
   78.90000p      5.0000m      5.0922   
   78.95000p      5.0000m      5.0922   
   79.00000p      5.0000m      5.0922   
   79.05000p      5.0000m      5.0922   
   79.10000p      5.0000m      5.0922   
[...]
  128.55000p      0.         999.9003m  
  128.60000p      0.         999.9009m  
  128.65000p      0.         999.9015m  
  128.70000p      0.         999.9022m  
  128.75000p      0.         999.9028m  
  128.80000p      0.         999.9034m  
  128.85000p      0.         999.9040m  
  128.90000p      0.         999.9046m  
  128.95000p      0.         999.9053m  
  129.00000p      0.         999.9059m  
  129.05000p      0.         999.9065m  
  129.10000p      0.         999.9071m  
  129.15000p      0.         999.9077m  
  129.20000p      0.         999.9084m  
  129.25000p      0.         999.9090m  
  129.30000p      0.         999.9096m  
  129.35000p      0.         999.9102m  
  129.40000p      0.         999.9108m  
  129.45000p      0.         999.9115m  
  129.50000p      0.         999.9121m  
  129.55000p      0.         999.9127m  
  129.60000p      0.         999.9133m  
  129.65000p      0.         999.9139m  
  129.70000p      0.         999.9145m  
  129.75000p      0.         999.9152m  
  129.80000p      0.         999.9158m  
  129.85000p      0.         999.9164m  
  129.90000p      0.         999.9170m  
  129.95000p      0.         999.9176m  
  130.00000p      0.         999.9183m  
  130.05000p      0.         999.9189m  
  130.10000p      0.         999.9195m  
  130.15000p      0.         999.9201m  
  130.20000p      0.         999.9207m  
  130.25000p      0.         999.9214m  
  130.30000p      0.         999.9220m  
  130.35000p      0.         999.9226m  
  130.40000p      0.         999.9232m  
  130.45000p      0.         999.9238m  
  130.50000p      0.         999.9245m  
  130.55000p      0.         999.9251m  
  130.60000p      0.         999.9257m  
  130.65000p      0.         999.9263m  
  130.70000p      0.         999.9269m  
  130.75000p      0.         999.9276m  
  130.80000p      0.         999.9282m  
  130.85000p      0.         999.9288m  
  130.90000p      0.         999.9294m  
  130.95000p      0.         999.9300m  
  131.00000p      0.         999.9306m  
  131.05000p      0.         999.9313m  
  131.10000p      0.         999.9319m  
  131.15000p      0.         999.9325m  
  131.20000p      0.         999.9331m  
  131.25000p      0.         999.9337m  
  131.30000p      0.         999.9344m  
  131.35000p      0.         999.9350m  
  131.40000p      0.         999.9356m  
  131.45000p      0.         999.9362m  
  131.50000p      0.         999.9368m  
  131.55000p      0.         999.9375m  
  131.60000p      0.         999.9381m  
  131.65000p      0.         999.9387m  
  131.70000p      0.         999.9393m  
  131.75000p      0.         999.9399m  
  131.80000p      0.         999.9406m  
  131.85000p      0.         999.9412m  
  131.90000p      0.         999.9418m  
  131.95000p      0.         999.9424m  
  132.00000p      0.         999.9430m  
  132.05000p      0.         999.9437m  
  132.10000p      0.         999.9443m  
  132.15000p      0.         999.9449m  
  132.20000p      0.         999.9455m  
  132.25000p      0.         999.9461m  
  132.30000p      0.         999.9467m  
  132.35000p      0.         999.9474m  
  132.40000p      0.         999.9480m  
  132.45000p      0.         999.9486m  
  132.50000p      0.         999.9492m  
  132.55000p      0.         999.9498m  
  132.60000p      0.         999.9505m  
  132.65000p      0.         999.9511m  
  132.70000p      0.         999.9517m  
  132.75000p      0.         999.9523m  
  132.80000p      0.         999.9529m  
  132.85000p      0.         999.9536m  
  132.90000p      0.         999.9542m  
  132.95000p      0.         999.9548m  
  133.00000p      0.         999.9554m  
  133.05000p      0.         999.9560m  
  133.10000p      0.         999.9567m  
  133.15000p      0.         999.9573m  
  133.20000p      0.         999.9579m  
  133.25000p      0.         999.9585m  
  133.30000p      0.         999.9591m  
  133.35000p      0.         999.9598m  
  133.40000p      0.         999.9604m  
  133.45000p      0.         999.9610m  
  133.50000p      0.         999.9616m  
  133.55000p      0.         999.9622m  
  133.60000p      0.         999.9628m  
  133.65000p      0.         999.9635m  
  133.70000p      0.         999.9641m  
  133.75000p      0.         999.9647m  
  133.80000p      0.         999.9653m  
  133.85000p      0.         999.9659m  
  133.90000p      0.         999.9666m  
  133.95000p      0.         999.9672m  
  134.00000p      0.         999.9678m  
  134.05000p      0.         999.9684m  
  134.10000p      0.         999.9690m  
  134.15000p      0.         999.9697m  
  134.20000p      0.         999.9703m  
  134.25000p      0.         999.9709m  
  134.30000p      0.         999.9715m  
  134.35000p      0.         999.9721m  
  134.40000p      0.         999.9728m  
  134.45000p      0.         999.9734m  
  134.50000p      0.         999.9740m  
  134.55000p      0.         999.9746m  
  134.60000p      0.         999.9752m  
  134.65000p      0.         999.9759m  
  134.70000p      0.         999.9765m  
  134.75000p      0.         999.9771m  
  134.80000p      0.         999.9777m  
  134.85000p      0.         999.9783m  
  134.90000p      0.         999.9789m  
  134.95000p      0.         999.9796m  
  135.00000p      0.         999.9802m  
  135.05000p      0.         999.9808m  
  135.10000p      0.         999.9814m  
  135.15000p      0.         999.9820m  
  135.20000p      0.         999.9827m  
  135.25000p      0.         999.9833m  
  135.30000p      0.         999.9839m  
  135.35000p      0.         999.9845m  
  135.40000p      0.         999.9850m  
  135.45000p      0.         999.9850m  
  135.50000p      0.         999.9851m  
  135.55000p      0.         999.9851m  
  135.60000p      0.         999.9852m  
  135.65000p      0.         999.9852m  
  135.70000p      0.         999.9853m  
  135.75000p      0.         999.9853m  
  135.80000p      0.         999.9854m  
  135.85000p      0.         999.9854m  
  135.90000p      0.         999.9854m  
  135.95000p      0.         999.9855m  
  136.00000p      0.         999.9855m  
  136.05000p      0.         999.9856m  
  136.10000p      0.         999.9856m  
  136.15000p      0.         999.9857m  
  136.20000p      0.         999.9857m  
  136.25000p      0.         999.9857m  
  136.30000p      0.         999.9858m  
  136.35000p      0.         999.9858m  
  136.40000p      0.         999.9859m  
  136.45000p      0.         999.9859m  
  136.50000p      0.         999.9860m  
  136.55000p      0.         999.9860m  
  136.60000p      0.         999.9861m  
  136.65000p      0.         999.9861m  
  136.70000p      0.         999.9861m  
  136.75000p      0.         999.9862m  
  136.80000p      0.         999.9862m  
  136.85000p      0.         999.9863m  
  136.90000p      0.         999.9863m  
  136.95000p      0.         999.9864m  
  137.00000p      0.         999.9864m  
  137.05000p      0.         999.9864m  
  137.10000p      0.         999.9865m  
  137.15000p      0.         999.9865m  
  137.20000p      0.         999.9866m  
  137.25000p      0.         999.9866m  
  137.30000p      0.         999.9867m  
  137.35000p      0.         999.9867m  
  137.40000p      0.         999.9868m  
  137.45000p      0.         999.9868m  
  137.50000p      0.         999.9868m  
  137.55000p      0.         999.9869m  
  137.60000p      0.         999.9869m  
  137.65000p      0.         999.9870m  
  137.70000p      0.         999.9870m  
  137.75000p      0.         999.9871m  
  137.80000p      0.         999.9871m  
  137.85000p      0.         999.9872m  
  137.90000p      0.         999.9872m  
  137.95000p      0.         999.9872m  
  138.00000p      0.         999.9873m  
  138.05000p      0.         999.9873m  
  138.10000p      0.         999.9874m  
  138.15000p      0.         999.9874m  
  138.20000p      0.         999.9875m  
  138.25000p      0.         999.9875m  
  138.30000p      0.         999.9875m  
  138.35000p      0.         999.9876m  
  138.40000p      0.         999.9876m  
  138.45000p      0.         999.9877m  
  138.50000p      0.         999.9877m  
  138.55000p      0.         999.9878m  
  138.60000p      0.         999.9878m  
  138.65000p      0.         999.9879m  
  138.70000p      0.         999.9879m  
  138.75000p      0.         999.9879m  
  138.80000p      0.         999.9880m  
  138.85000p      0.         999.9880m  
  138.90000p      0.         999.9881m  
  138.95000p      0.         999.9881m  
  139.00000p      0.         999.9882m  
  139.05000p      0.         999.9882m  
  139.10000p      0.         999.9882m  
  139.15000p      0.         999.9883m  
  139.20000p      0.         999.9883m  
  139.25000p      0.         999.9884m  
  139.30000p      0.         999.9884m  
  139.35000p      0.         999.9885m  
  139.40000p      0.         999.9885m  
  139.45000p      0.         999.9886m  
  139.50000p      0.         999.9886m  
  139.55000p      0.         999.9886m  
  139.60000p      0.         999.9887m  
  139.65000p      0.         999.9887m  
  139.70000p      0.         999.9888m  
  139.75000p      0.         999.9888m  
  139.80000p      0.         999.9889m  
  139.85000p      0.         999.9889m  
  139.90000p      0.         999.9889m  
  139.95000p      0.         999.9890m  
  140.00000p      0.         999.9890m  
  140.05000p      0.         999.9891m  
  140.10000p      0.         999.9891m  
  140.15000p      0.         999.9892m  
  140.20000p      0.         999.9892m  
  140.25000p      0.         999.9893m  
  140.30000p      0.         999.9893m  
  140.35000p      0.         999.9893m  
  140.40000p      0.         999.9894m  
  140.45000p      0.         999.9894m  
  140.50000p      0.         999.9895m  
  140.55000p      0.         999.9895m  
  140.60000p      0.         999.9896m  
  140.65000p      0.         999.9896m  
  140.70000p      0.         999.9897m  
  140.75000p      0.         999.9897m  
  140.80000p      0.         999.9897m  
  140.85000p      0.         999.9898m  
  140.90000p      0.         999.9898m  
  140.95000p      0.         999.9899m  
  141.00000p      0.         999.9899m  
  141.05000p      0.         999.9900m  
  141.10000p      0.         999.9900m  
  141.15000p      0.         999.9900m  
  141.20000p      0.         999.9901m  
  141.25000p      0.         999.9901m  
  141.30000p      0.         999.9902m  
  141.35000p      0.         999.9902m  
  141.40000p      0.         999.9903m  
  141.45000p      0.         999.9903m  
  141.50000p      0.         999.9904m  
  141.55000p      0.         999.9904m  
  141.60000p      0.         999.9904m  
  141.65000p      0.         999.9905m  
  141.70000p      0.         999.9905m  
  141.75000p      0.         999.9906m  
  141.80000p      0.         999.9906m  
  141.85000p      0.         999.9907m  
  141.90000p      0.         999.9907m  
  141.95000p      0.         999.9907m  
  142.00000p      0.         999.9908m  
  142.05000p      0.         999.9908m  
  142.10000p      0.         999.9909m  
  142.15000p      0.         999.9909m  
  142.20000p      0.         999.9910m  
  142.25000p      0.         999.9910m  
  142.30000p      0.         999.9911m  
  142.35000p      0.         999.9911m  
  142.40000p      0.         999.9911m  
  142.45000p      0.         999.9912m  
  142.50000p      0.         999.9912m  
  142.55000p      0.         999.9913m  
  142.60000p      0.         999.9913m  
  142.65000p      0.         999.9914m  
  142.70000p      0.         999.9914m  
  142.75000p      0.         999.9915m  
  142.80000p      0.         999.9915m  
  142.85000p      0.         999.9915m  
  142.90000p      0.         999.9916m  
  142.95000p      0.         999.9915m  
  143.00000p      0.         999.9914m  
  143.05000p      0.         999.9914m  
  143.10000p      0.         999.9913m  
  143.15000p      0.         999.9912m  
  143.20000p      0.         999.9912m  
  143.25000p      0.         999.9911m  
  143.30000p      0.         999.9910m  
  143.35000p      0.         999.9910m  
  143.40000p      0.         999.9909m  
  143.45000p      0.         999.9908m  
  143.50000p      0.         999.9908m  
  143.55000p      0.         999.9907m  
  143.60000p      0.         999.9906m  
  143.65000p      0.         999.9906m  
  143.70000p      0.         999.9905m  
  143.75000p      0.         999.9904m  
  143.80000p      0.         999.9904m  
  143.85000p      0.         999.9903m  
  143.90000p      0.         999.9902m  
  143.95000p      0.         999.9902m  
  144.00000p      0.         999.9901m  
  144.05000p      0.         999.9900m  
  144.10000p      0.         999.9900m  
  144.15000p      0.         999.9899m  
  144.20000p      0.         999.9898m  
  144.25000p      0.         999.9898m  
  144.30000p      0.         999.9897m  
  144.35000p      0.         999.9896m  
  144.40000p      0.         999.9896m  
  144.45000p      0.         999.9895m  
  144.50000p      0.         999.9894m  
  144.55000p      0.         999.9894m  
  144.60000p      0.         999.9893m  
  144.65000p      0.         999.9892m  
  144.70000p      0.         999.9892m  
  144.75000p      0.         999.9891m  
  144.80000p      0.         999.9890m  
  144.85000p      0.         999.9890m  
  144.90000p      0.         999.9889m  
  144.95000p      0.         999.9888m  
  145.00000p      0.         999.9888m  
  145.05000p      0.         999.9887m  
  145.10000p      0.         999.9886m  
  145.15000p      0.         999.9886m  
  145.20000p      0.         999.9885m  
  145.25000p      0.         999.9884m  
  145.30000p      0.         999.9884m  
  145.35000p      0.         999.9883m  
  145.40000p      0.         999.9882m  
  145.45000p      0.         999.9882m  
  145.50000p      0.         999.9881m  
  145.55000p      0.         999.9881m  
  145.60000p      0.         999.9880m  
  145.65000p      0.         999.9879m  
  145.70000p      0.         999.9879m  
  145.75000p      0.         999.9878m  
  145.80000p      0.         999.9877m  
  145.85000p      0.         999.9877m  
  145.90000p      0.         999.9876m  
  145.95000p      0.         999.9875m  
  146.00000p      0.         999.9875m  
  146.05000p      0.         999.9874m  
  146.10000p      0.         999.9873m  
  146.15000p      0.         999.9873m  
  146.20000p      0.         999.9872m  
  146.25000p      0.         999.9871m  
  146.30000p      0.         999.9871m  
  146.35000p      0.         999.9870m  
  146.40000p      0.         999.9869m  
  146.45000p      0.         999.9869m  
  146.50000p      0.         999.9868m  
  146.55000p      0.         999.9867m  
  146.60000p      0.         999.9867m  
  146.65000p      0.         999.9866m  
  146.70000p      0.         999.9865m  
  146.75000p      0.         999.9865m  
  146.80000p      0.         999.9864m  
  146.85000p      0.         999.9863m  
  146.90000p      0.         999.9863m  
  146.95000p      0.         999.9862m  
  147.00000p      0.         999.9861m  
  147.05000p      0.         999.9861m  
  147.10000p      0.         999.9860m  
  147.15000p      0.         999.9859m  
  147.20000p      0.         999.9859m  
  147.25000p      0.         999.9858m  
  147.30000p      0.         999.9857m  
  147.35000p      0.         999.9857m  
  147.40000p      0.         999.9856m  
  147.45000p      0.         999.9855m  
  147.50000p      0.         999.9855m  
  147.55000p      0.         999.9854m  
  147.60000p      0.         999.9853m  
  147.65000p      0.         999.9853m  
  147.70000p      0.         999.9852m  
  147.75000p      0.         999.9851m  
  147.80000p      0.         999.9851m  
  147.85000p      0.         999.9850m  
  147.90000p      0.         999.9849m  
  147.95000p      0.         999.9849m  
  148.00000p      0.         999.9848m  
  148.05000p      0.         999.9847m  
  148.10000p      0.         999.9847m  
  148.15000p      0.         999.9846m  
  148.20000p      0.         999.9845m  
  148.25000p      0.         999.9845m  
  148.30000p      0.         999.9844m  
  148.35000p      0.         999.9843m  
  148.40000p      0.         999.9843m  
  148.45000p      0.         999.9842m  
  148.50000p      0.         999.9841m  
  148.55000p      0.         999.9841m  
  148.60000p      0.         999.9840m  
  148.65000p      0.         999.9840m  
  148.70000p      0.         999.9839m  
  148.75000p      0.         999.9838m  
  148.80000p      0.         999.9838m  
  148.85000p      0.         999.9837m  
  148.90000p      0.         999.9836m  
  148.95000p      0.         999.9836m  
  149.00000p      0.         999.9835m  
  149.05000p      0.         999.9834m  
  149.10000p      0.         999.9834m  
  149.15000p      0.         999.9833m  
  149.20000p      0.         999.9832m  
  149.25000p      0.         999.9832m  
  149.30000p      0.         999.9831m  
  149.35000p      0.         999.9830m  
  149.40000p      0.         999.9830m  
  149.45000p      0.         999.9829m  
  149.50000p      0.         999.9828m  
  149.55000p      0.         999.9828m  
  149.60000p      0.         999.9827m  
  149.65000p      0.         999.9826m  
  149.70000p      0.         999.9826m  
  149.75000p      0.         999.9825m  
  149.80000p      0.         999.9824m  
  149.85000p      0.         999.9824m  
  149.90000p      0.         999.9823m  
  149.95000p      0.         999.9822m  
  150.00000p      0.         999.9822m  
y
 absmax=   5.09244532     at=  56.93254768p
             from=   0.             to= 150.00000000p
 absmin= 999.89789062m    at= 128.35508749p
             from=   0.             to= 150.00000000p
 maxvolt=   4.27393584 
 minvolt=   1.81840738 
 deltav=   2.45552846 
 atimer=-707.74063674f  targ=  50.14211300p   trig=  50.84985364p
 atimef=   5.05389738p  targ= 105.45084207p   trig= 100.39694470p
 capr=   1.44111675f
 capf=  10.29085482f
 captot=   5.86598578f

          ***** job concluded
1****** HSPICE -- F-2011.09 32-BIT (Sep  5 2011) linux ******                   
 ******  
 $ characterize capacitance

  ******  job statistics summary tnom=  25.000 temp=  25.000 *****
  
  
 ******  Machine Information  ******
 CPU:
 model name	: Intel(R) Xeon(R) CPU           E5520  @ 2.27GHz
 cpu MHz	: 2260.532
  
 OS:
 Linux version 3.2.0-4-amd64 (debian-kernel@lists.debian.org) (gcc version 4.6.3
  (Debian 4.6.3-14) ) #1 SMP Debian 3.2.41-2+deb7u2


  ******  HSPICE Threads Information  ******

  Command Line Threads Count :     1
  Available CPU Count        :    16
  Actual Threads Count       :     1


  ******  Circuit Statistics  ******
  # nodes       =       6 # elements   =       8
  # resistors   =       0 # capacitors =       0 # inductors   =       0
  # mutual_inds =       0 # vccs       =       0 # vcvs        =       0
  # cccs        =       0 # ccvs       =       0 # volt_srcs   =       3
  # curr_srcs   =       1 # diodes     =       0 # bjts        =       0
  # jfets       =       0 # mosfets    =       4 # U elements  =       0
  # T elements  =       0 # W elements =       0 # B elements  =       0
  # S elements  =       0 # P elements =       0 # va device   =       0
  # vector_srcs =       0


  ******  Runtime Statistics (seconds)  ******

  analysis           time    # points   tot. iter  conv.iter
  op point           0.00           1           3
  transient          0.00        3001         498          61 rev=         0
  readin             0.00
  errchk             0.02
  setup              0.00
  output             0.00


           peak memory used         84.30 megabytes
           total cpu time            0.02 seconds
           total elapsed time        0.19 seconds
           job started at     11:04:10 07/31/2013
           job ended   at     11:04:10 07/31/2013


 lic: Release hspice token(s) 
